@<TRIPOS>MOLECULE
2-[4-(2-hydroxyethyl)piperazin-4-ium-1-yl]ethanesulfonate
   33    33     1     0     0
SMALL
USER_CHARGES

@<TRIPOS>ATOM
      1 N1         61.6520   47.3370   51.6160 N.3       1 EPE        -0.7354
      2 C2         63.0510   46.9050   51.9670 C.3       1 EPE         0.1432
      3 C3         63.9620   47.2570   50.7960 C.3       1 EPE         0.1102
      4 N4         63.5510   46.5440   49.5780 N.4       1 EPE        -0.6841
      5 C5         62.1510   46.9100   49.2480 C.3       1 EPE         0.1102
      6 C6         61.2180   46.5540   50.4020 C.3       1 EPE         0.1432
      7 C7         64.3680   46.8930   48.3850 C.3       1 EPE         0.0534
      8 C8         65.8540   46.7210   48.6130 C.3       1 EPE         0.1152
      9 O8         66.2400   45.4000   48.9790 O.3       1 EPE        -0.5592
     10 C9         60.6850   46.9920   52.7090 C.3       1 EPE         0.2050
     11 C10        60.8700   47.9740   53.8930 C.3       1 EPE        -0.2816
     12 S          59.5590   47.6920   55.0900 S.o2      1 EPE         1.4355
     13 O1S        59.7320   48.6940   56.1150 O.2       1 EPE        -0.7397
     14 O2S        59.7370   46.3270   55.5960 O.2       1 EPE        -0.7397
     15 O3S        58.3310   47.8630   54.3580 O.3       1 EPE        -0.7397
     16 H21        63.3802   47.4310   52.8753 H         1 EPE         0.0757
     17 H22        63.0656   45.8198   52.1462 H         1 EPE         0.0757
     18 H31        63.9127   48.3393   50.6055 H         1 EPE         0.0989
     19 H32        64.9970   46.9742   51.0387 H         1 EPE         0.0989
     20 H51        62.0895   47.9921   49.0602 H         1 EPE         0.0989
     21 H52        61.8312   46.3630   48.3488 H         1 EPE         0.0989
     22 H61        61.2784   45.4774   50.6192 H         1 EPE         0.0757
     23 H62        60.1815   46.8188   50.1462 H         1 EPE         0.0757
     24 H71        64.0827   46.2452   47.5430 H         1 EPE         0.1041
     25 H72        64.1917   47.9446   48.1147 H         1 EPE         0.1041
     26 H81        66.3980   46.9719   47.6904 H         1 EPE         0.0697
     27 H82        66.1802   47.3886   49.4241 H         1 EPE         0.0697
     28 HO8        67.2987   45.1687   49.1676 H         1 EPE         0.4154
     29 H91        59.6565   47.0692   52.3265 H         1 EPE         0.0642
     30 H92        60.8720   45.9641   53.0531 H         1 EPE         0.0642
     31 H101       61.8486   47.8000   54.3642 H         1 EPE         0.0679
     32 H102       60.8202   49.0086   53.5226 H         1 EPE         0.0679
     33 H33        63.6797   45.4756   49.8062 H         1 EPE         0.4379
@<TRIPOS>BOND
     1    1    2 1
     2    1    6 1
     3    1   10 1
     4    2    3 1
     5    2   16 1
     6    2   17 1
     7    3    4 1
     8    3   18 1
     9    3   19 1
    10    4    5 1
    11    4    7 1
    12    4   33 1
    13    5    6 1
    14    5   20 1
    15    5   21 1
    16    6   22 1
    17    6   23 1
    18    7    8 1
    19    7   24 1
    20    7   25 1
    21    8    9 1
    22    8   26 1
    23    8   27 1
    24    9   28 1
    25   10   11 1
    26   10   29 1
    27   10   30 1
    28   11   12 1
    29   11   31 1
    30   11   32 1
    31   12   13 2
    32   12   14 2
    33   12   15 1
@<TRIPOS>SUBSTRUCTURE
     1 EPE         1 GROUP   0 A     ****
@<TRIPOS>MOLECULE
2-[4-(2-hydroxyethyl)piperazin-1-yl]ethanesulfonate
   32    32     1     0     0
SMALL
USER_CHARGES

@<TRIPOS>ATOM
      1 N1         61.6520   47.3370   51.6160 N.3       1 EPE        -0.7192
      2 C2         63.0510   46.9050   51.9670 C.3       1 EPE         0.1647
      3 C3         63.9620   47.2570   50.7960 C.3       1 EPE         0.1723
      4 N4         63.5510   46.5440   49.5780 N.3       1 EPE        -0.7421
      5 C5         62.1510   46.9100   49.2480 C.3       1 EPE         0.1723
      6 C6         61.2180   46.5540   50.4020 C.3       1 EPE         0.1647
      7 C7         64.3680   46.8930   48.3850 C.3       1 EPE         0.1744
      8 C8         65.8540   46.7210   48.6130 C.3       1 EPE         0.1262
      9 O8         66.2400   45.4000   48.9790 O.3       1 EPE        -0.6115
     10 C9         60.6850   46.9920   52.7090 C.3       1 EPE         0.2002
     11 C10        60.8700   47.9740   53.8930 C.3       1 EPE        -0.2880
     12 S          59.5590   47.6920   55.0900 S.o2      1 EPE         1.4288
     13 O1S        59.7320   48.6940   56.1150 O.2       1 EPE        -0.7523
     14 O2S        59.7370   46.3270   55.5960 O.2       1 EPE        -0.7523
     15 O3S        58.3310   47.8630   54.3580 O.3       1 EPE        -0.7523
     16 H21        63.3802   47.4310   52.8753 H         1 EPE         0.0380
     17 H22        63.0656   45.8198   52.1462 H         1 EPE         0.0380
     18 H31        63.9127   48.3393   50.6055 H         1 EPE         0.0276
     19 H32        64.9970   46.9742   51.0387 H         1 EPE         0.0276
     20 H51        62.0895   47.9921   49.0602 H         1 EPE         0.0276
     21 H52        61.8312   46.3630   48.3488 H         1 EPE         0.0276
     22 H61        61.2784   45.4774   50.6192 H         1 EPE         0.0380
     23 H62        60.1815   46.8188   50.1462 H         1 EPE         0.0380
     24 H71        64.0827   46.2452   47.5430 H         1 EPE         0.0391
     25 H72        64.1917   47.9446   48.1147 H         1 EPE         0.0391
     26 H81        66.3980   46.9719   47.6904 H         1 EPE         0.0282
     27 H82        66.1802   47.3886   49.4241 H         1 EPE         0.0282
     28 HO8        67.2987   45.1687   49.1676 H         1 EPE         0.3941
     29 H91        59.6565   47.0692   52.3265 H         1 EPE         0.0436
     30 H92        60.8720   45.9641   53.0531 H         1 EPE         0.0436
     31 H101       61.8486   47.8000   54.3642 H         1 EPE         0.0680
     32 H102       60.8202   49.0086   53.5226 H         1 EPE         0.0680
@<TRIPOS>BOND
     1    1    2 1
     2    1    6 1
     3    1   10 1
     4    2    3 1
     5    2   16 1
     6    2   17 1
     7    3    4 1
     8    3   18 1
     9    3   19 1
    10    4    5 1
    11    4    7 1
    12    5    6 1
    13    5   20 1
    14    5   21 1
    15    6   22 1
    16    6   23 1
    17    7    8 1
    18    7   24 1
    19    7   25 1
    20    8    9 1
    21    8   26 1
    22    8   27 1
    23    9   28 1
    24   10   11 1
    25   10   29 1
    26   10   30 1
    27   11   12 1
    28   11   31 1
    29   11   32 1
    30   12   13 2
    31   12   14 2
    32   12   15 1
@<TRIPOS>SUBSTRUCTURE
     1 EPE         1 GROUP   0 A     ****
@<TRIPOS>MOLECULE
2-[4-(2-hydroxyethyl)piperazin-1-ium-1-yl]ethanesulfonate
   33    33     1     0     0
SMALL
USER_CHARGES

@<TRIPOS>ATOM
      1 N1         61.6520   47.3370   51.6160 N.4       1 EPE        -0.6964
      2 C2         63.0510   46.9050   51.9670 C.3       1 EPE         0.1082
      3 C3         63.9620   47.2570   50.7960 C.3       1 EPE         0.1462
      4 N4         63.5510   46.5440   49.5780 N.3       1 EPE        -0.7519
      5 C5         62.1510   46.9100   49.2480 C.3       1 EPE         0.1462
      6 C6         61.2180   46.5540   50.4020 C.3       1 EPE         0.1082
      7 C7         64.3680   46.8930   48.3850 C.3       1 EPE         0.1684
      8 C8         65.8540   46.7210   48.6130 C.3       1 EPE         0.1304
      9 O8         66.2400   45.4000   48.9790 O.3       1 EPE        -0.6006
     10 C9         60.6850   46.9920   52.7090 C.3       1 EPE         0.1821
     11 C10        60.8700   47.9740   53.8930 C.3       1 EPE        -0.3063
     12 S          59.5590   47.6920   55.0900 S.o2      1 EPE         1.4456
     13 O1S        59.7320   48.6940   56.1150 O.2       1 EPE        -0.7230
     14 O2S        59.7370   46.3270   55.5960 O.2       1 EPE        -0.7230
     15 O3S        58.3310   47.8630   54.3580 O.3       1 EPE        -0.7230
     16 H21        63.3802   47.4310   52.8753 H         1 EPE         0.1080
     17 H22        63.0656   45.8198   52.1462 H         1 EPE         0.1080
     18 H31        63.9127   48.3393   50.6055 H         1 EPE         0.0638
     19 H32        64.9970   46.9742   51.0387 H         1 EPE         0.0638
     20 H51        62.0895   47.9921   49.0602 H         1 EPE         0.0638
     21 H52        61.8312   46.3630   48.3488 H         1 EPE         0.0638
     22 H61        61.2784   45.4774   50.6192 H         1 EPE         0.1080
     23 H62        60.1815   46.8188   50.1462 H         1 EPE         0.1080
     24 H71        64.0827   46.2452   47.5430 H         1 EPE         0.0590
     25 H72        64.1917   47.9446   48.1147 H         1 EPE         0.0590
     26 H81        66.3980   46.9719   47.6904 H         1 EPE         0.0318
     27 H82        66.1802   47.3886   49.4241 H         1 EPE         0.0318
     28 HO8        67.2987   45.1687   49.1676 H         1 EPE         0.4122
     29 H91        59.6565   47.0692   52.3265 H         1 EPE         0.1067
     30 H92        60.8720   45.9641   53.0531 H         1 EPE         0.1067
     31 H101       61.8486   47.8000   54.3642 H         1 EPE         0.0793
     32 H102       60.8202   49.0086   53.5226 H         1 EPE         0.0793
     33 H33        61.6534   48.4252   51.4556 H         1 EPE         0.4355
@<TRIPOS>BOND
     1    1    2 1
     2    1    6 1
     3    1   10 1
     4    1   33 1
     5    2    3 1
     6    2   16 1
     7    2   17 1
     8    3    4 1
     9    3   18 1
    10    3   19 1
    11    4    5 1
    12    4    7 1
    13    5    6 1
    14    5   20 1
    15    5   21 1
    16    6   22 1
    17    6   23 1
    18    7    8 1
    19    7   24 1
    20    7   25 1
    21    8    9 1
    22    8   26 1
    23    8   27 1
    24    9   28 1
    25   10   11 1
    26   10   29 1
    27   10   30 1
    28   11   12 1
    29   11   31 1
    30   11   32 1
    31   12   13 2
    32   12   14 2
    33   12   15 1
@<TRIPOS>SUBSTRUCTURE
     1 EPE         1 GROUP   0 A     ****
