@<TRIPOS>MOLECULE
2-(hydroxymethyl)-6-[4,5,6-trihydroxy-2-(hydroxymethyl)tetrahydropyran-3-yl]oxy-tetrahydropyran-3,4,5-triol
   45    46     1     0     0
SMALL
USER_CHARGES

@<TRIPOS>ATOM
      1 C1         81.3110   64.7430   44.7180 C.3       1 MAL         0.2966
      2 C2         80.6630   63.5580   45.4040 C.3       1 MAL         0.0780
      3 C3         81.1960   62.2940   44.7900 C.3       1 MAL         0.1101
      4 C4         80.8750   62.3250   43.3080 C.3       1 MAL         0.1187
      5 C5         81.5630   63.5230   42.6670 C.3       1 MAL         0.1460
      6 C6         81.2720   63.6930   41.2010 C.3       1 MAL         0.1367
      7 O1         82.6920   64.6720   44.9600 O.3       1 MAL        -0.4250
      8 O2         80.9470   63.5360   46.7970 O.3       1 MAL        -0.5978
      9 O3         80.5790   61.1520   45.3770 O.3       1 MAL        -0.6071
     10 O4         81.3410   61.1500   42.6620 O.3       1 MAL        -0.5935
     11 O5         81.1580   64.7380   43.3070 O.3       1 MAL        -0.4140
     12 O6         82.1520   64.6320   40.5650 O.3       1 MAL        -0.5896
     13 C1'        85.4010   67.4610   46.5160 C.3       1 MAL         0.2992
     14 C2'        84.4510   66.7680   47.4730 C.3       1 MAL         0.1414
     15 C3'        83.7780   65.5300   46.9150 C.3       1 MAL         0.1136
     16 C4'        83.2740   65.8600   45.5200 C.3       1 MAL         0.0863
     17 C5'        84.4050   66.3270   44.6070 C.3       1 MAL         0.0854
     18 C6'        83.8530   66.7020   43.2520 C.3       1 MAL         0.1255
     19 O1'        86.7270   67.0920   46.6550 O.3       1 MAL        -0.6327
     20 O2'        85.0120   66.5480   48.7770 O.3       1 MAL        -0.5721
     21 O3'        82.7470   65.0470   47.7800 O.3       1 MAL        -0.5930
     22 O5'        84.9780   67.5220   45.1480 O.3       1 MAL        -0.4580
     23 O6'        84.4550   65.8750   42.2450 O.3       1 MAL        -0.5860
     24 H1         80.8769   65.6868   45.0795 H         1 MAL         0.0745
     25 H2         79.5678   63.6335   45.3345 H         1 MAL         0.0691
     26 H3         82.2709   62.1822   44.9953 H         1 MAL         0.0740
     27 H4         79.7845   62.3309   43.1638 H         1 MAL         0.0576
     28 H5         82.6437   63.3770   42.8115 H         1 MAL         0.0893
     29 H61        81.3864   62.7257   40.6899 H         1 MAL         0.0435
     30 H62        80.2420   64.0566   41.0714 H         1 MAL         0.0435
     31 HO2        80.6373   64.3770   47.4348 H         1 MAL         0.4152
     32 HO3        80.6971   60.9551   46.4528 H         1 MAL         0.4272
     33 HO4        80.9663   60.1645   42.9756 H         1 MAL         0.4250
     34 HO6        82.0441   64.8469   39.4916 H         1 MAL         0.4041
     35 H1'        85.4508   68.5214   46.8041 H         1 MAL         0.0858
     36 H2'        83.6523   67.4971   47.6741 H         1 MAL         0.1026
     37 H3'        84.4621   64.6689   46.8928 H         1 MAL         0.0711
     38 H4'        82.4965   66.6360   45.5776 H         1 MAL         0.0546
     39 H5'        85.1837   65.5532   44.5375 H         1 MAL         0.0877
     40 H6'1       82.7632   66.5528   43.2460 H         1 MAL         0.0657
     41 H6'2       84.0796   67.7580   43.0432 H         1 MAL         0.0657
     42 HO1'       87.1726   67.0089   47.6573 H         1 MAL         0.4278
     43 HO2'       85.5306   67.3664   49.2978 H         1 MAL         0.4185
     44 HO3'       82.9841   64.7727   48.8185 H         1 MAL         0.4221
     45 HO6'       84.1753   66.0028   41.1889 H         1 MAL         0.4068
@<TRIPOS>BOND
     1    1    2 1
     2    1    7 1
     3    1   11 1
     4    1   24 1
     5    2    3 1
     6    2    8 1
     7    2   25 1
     8    3    4 1
     9    3    9 1
    10    3   26 1
    11    4    5 1
    12    4   10 1
    13    4   27 1
    14    5    6 1
    15    5   11 1
    16    5   28 1
    17    6   12 1
    18    6   29 1
    19    6   30 1
    20    7   16 1
    21    8   31 1
    22    9   32 1
    23   10   33 1
    24   12   34 1
    25   13   14 1
    26   13   19 1
    27   13   22 1
    28   13   35 1
    29   14   15 1
    30   14   20 1
    31   14   36 1
    32   15   16 1
    33   15   21 1
    34   15   37 1
    35   16   17 1
    36   16   38 1
    37   17   18 1
    38   17   22 1
    39   17   39 1
    40   18   23 1
    41   18   40 1
    42   18   41 1
    43   19   42 1
    44   20   43 1
    45   21   44 1
    46   23   45 1
@<TRIPOS>SUBSTRUCTURE
     1 MAL         1 GROUP   0 A     ****
@<TRIPOS>MOLECULE
4,5-dihydroxy-6-(hydroxymethyl)-2-[4,5,6-trihydroxy-2-(hydroxymethyl)tetrahydropyran-3-yl]oxy-tetrahydropyran-3-olate
   44    45     1     0     0
SMALL
USER_CHARGES

@<TRIPOS>ATOM
      1 C1         81.3110   64.7430   44.7180 C.3       1 MAL         0.2445
      2 C2         80.6630   63.5580   45.4040 C.3       1 MAL         0.3800
      3 C3         81.1960   62.2940   44.7900 C.3       1 MAL         0.0285
      4 C4         80.8750   62.3250   43.3080 C.3       1 MAL         0.1144
      5 C5         81.5630   63.5230   42.6670 C.3       1 MAL         0.1566
      6 C6         81.2720   63.6930   41.2010 C.3       1 MAL         0.1296
      7 O1         82.6920   64.6720   44.9600 O.3       1 MAL        -0.4207
      8 O2         80.9470   63.5360   46.7970 O.3       1 MAL        -0.8648
      9 O3         80.5790   61.1520   45.3770 O.3       1 MAL        -0.6494
     10 O4         81.3410   61.1500   42.6620 O.3       1 MAL        -0.6328
     11 O5         81.1580   64.7380   43.3070 O.3       1 MAL        -0.4568
     12 O6         82.1520   64.6320   40.5650 O.3       1 MAL        -0.5968
     13 C1'        85.4010   67.4610   46.5160 C.3       1 MAL         0.3375
     14 C2'        84.4510   66.7680   47.4730 C.3       1 MAL         0.1280
     15 C3'        83.7780   65.5300   46.9150 C.3       1 MAL         0.1184
     16 C4'        83.2740   65.8600   45.5200 C.3       1 MAL         0.1013
     17 C5'        84.4050   66.3270   44.6070 C.3       1 MAL         0.0826
     18 C6'        83.8530   66.7020   43.2520 C.3       1 MAL         0.1228
     19 O1'        86.7270   67.0920   46.6550 O.3       1 MAL        -0.6107
     20 O2'        85.0120   66.5480   48.7770 O.3       1 MAL        -0.6008
     21 O3'        82.7470   65.0470   47.7800 O.3       1 MAL        -0.6381
     22 O5'        84.9780   67.5220   45.1480 O.3       1 MAL        -0.4792
     23 O6'        84.4550   65.8750   42.2450 O.3       1 MAL        -0.6046
     24 H1         80.8769   65.6868   45.0795 H         1 MAL         0.0455
     25 H2         79.5678   63.6335   45.3345 H         1 MAL        -0.0627
     26 H3         82.2709   62.1822   44.9953 H         1 MAL         0.0425
     27 H4         79.7845   62.3309   43.1638 H         1 MAL         0.0387
     28 H5         82.6437   63.3770   42.8115 H         1 MAL         0.0668
     29 H61        81.3864   62.7257   40.6899 H         1 MAL         0.0327
     30 H62        80.2420   64.0566   41.0714 H         1 MAL         0.0327
     31 HO3        80.6971   60.9551   46.4528 H         1 MAL         0.4321
     32 HO4        80.9663   60.1645   42.9756 H         1 MAL         0.4166
     33 HO6        82.0441   64.8469   39.4916 H         1 MAL         0.3849
     34 H1'        85.4508   68.5214   46.8041 H         1 MAL         0.0629
     35 H2'        83.6523   67.4971   47.6741 H         1 MAL         0.0533
     36 H3'        84.4621   64.6689   46.8928 H         1 MAL         0.0705
     37 H4'        82.4965   66.6360   45.5776 H         1 MAL         0.0647
     38 H5'        85.1837   65.5532   44.5375 H         1 MAL         0.0751
     39 H6'1       82.7632   66.5528   43.2460 H         1 MAL         0.0733
     40 H6'2       84.0796   67.7580   43.0432 H         1 MAL         0.0733
     41 HO1'       87.1726   67.0089   47.6573 H         1 MAL         0.4082
     42 HO2'       85.5306   67.3664   49.2978 H         1 MAL         0.4257
     43 HO3'       82.9841   64.7727   48.8185 H         1 MAL         0.4771
     44 HO6'       84.1753   66.0028   41.1889 H         1 MAL         0.3964
@<TRIPOS>BOND
     1    1    2 1
     2    1    7 1
     3    1   11 1
     4    1   24 1
     5    2    3 1
     6    2    8 1
     7    2   25 1
     8    3    4 1
     9    3    9 1
    10    3   26 1
    11    4    5 1
    12    4   10 1
    13    4   27 1
    14    5    6 1
    15    5   11 1
    16    5   28 1
    17    6   12 1
    18    6   29 1
    19    6   30 1
    20    7   16 1
    21    9   31 1
    22   10   32 1
    23   12   33 1
    24   13   14 1
    25   13   19 1
    26   13   22 1
    27   13   34 1
    28   14   15 1
    29   14   20 1
    30   14   35 1
    31   15   16 1
    32   15   21 1
    33   15   36 1
    34   16   17 1
    35   16   37 1
    36   17   18 1
    37   17   22 1
    38   17   38 1
    39   18   23 1
    40   18   39 1
    41   18   40 1
    42   19   41 1
    43   20   42 1
    44   21   43 1
    45   23   44 1
@<TRIPOS>SUBSTRUCTURE
     1 MAL         1 GROUP   0 A     ****
@<TRIPOS>MOLECULE
2,4-dihydroxy-6-(hydroxymethyl)-5-[3,4,5-trihydroxy-6-(hydroxymethyl)tetrahydropyran-2-yl]oxy-tetrahydropyran-3-olate
   44    45     1     0     0
SMALL
USER_CHARGES

@<TRIPOS>ATOM
      1 C1         81.3110   64.7430   44.7180 C.3       1 MAL         0.2984
      2 C2         80.6630   63.5580   45.4040 C.3       1 MAL         0.1037
      3 C3         81.1960   62.2940   44.7900 C.3       1 MAL         0.1249
      4 C4         80.8750   62.3250   43.3080 C.3       1 MAL         0.1277
      5 C5         81.5630   63.5230   42.6670 C.3       1 MAL         0.0704
      6 C6         81.2720   63.6930   41.2010 C.3       1 MAL         0.1277
      7 O1         82.6920   64.6720   44.9600 O.3       1 MAL        -0.4121
      8 O2         80.9470   63.5360   46.7970 O.3       1 MAL        -0.6172
      9 O3         80.5790   61.1520   45.3770 O.3       1 MAL        -0.6028
     10 O4         81.3410   61.1500   42.6620 O.3       1 MAL        -0.5938
     11 O5         81.1580   64.7380   43.3070 O.3       1 MAL        -0.4435
     12 O6         82.1520   64.6320   40.5650 O.3       1 MAL        -0.6158
     13 C1'        85.4010   67.4610   46.5160 C.3       1 MAL         0.2601
     14 C2'        84.4510   66.7680   47.4730 C.3       1 MAL         0.4327
     15 C3'        83.7780   65.5300   46.9150 C.3       1 MAL         0.0110
     16 C4'        83.2740   65.8600   45.5200 C.3       1 MAL         0.1286
     17 C5'        84.4050   66.3270   44.6070 C.3       1 MAL         0.1832
     18 C6'        83.8530   66.7020   43.2520 C.3       1 MAL         0.0898
     19 O1'        86.7270   67.0920   46.6550 O.3       1 MAL        -0.5772
     20 O2'        85.0120   66.5480   48.7770 O.3       1 MAL        -0.8083
     21 O3'        82.7470   65.0470   47.7800 O.3       1 MAL        -0.6485
     22 O5'        84.9780   67.5220   45.1480 O.3       1 MAL        -0.4360
     23 O6'        84.4550   65.8750   42.2450 O.3       1 MAL        -0.5962
     24 H1         80.8769   65.6868   45.0795 H         1 MAL         0.0986
     25 H2         79.5678   63.6335   45.3345 H         1 MAL         0.0674
     26 H3         82.2709   62.1822   44.9953 H         1 MAL         0.0751
     27 H4         79.7845   62.3309   43.1638 H         1 MAL         0.0498
     28 H5         82.6437   63.3770   42.8115 H         1 MAL         0.0721
     29 H61        81.3864   62.7257   40.6899 H         1 MAL         0.0562
     30 H62        80.2420   64.0566   41.0714 H         1 MAL         0.0562
     31 HO2        80.6373   64.3770   47.4348 H         1 MAL         0.4594
     32 HO3        80.6971   60.9551   46.4528 H         1 MAL         0.4155
     33 HO4        80.9663   60.1645   42.9756 H         1 MAL         0.4090
     34 HO6        82.0441   64.8469   39.4916 H         1 MAL         0.4096
     35 H1'        85.4508   68.5214   46.8041 H         1 MAL        -0.0389
     36 H2'        83.6523   67.4971   47.6741 H         1 MAL        -0.1038
     37 H3'        84.4621   64.6689   46.8928 H         1 MAL         0.0300
     38 H4'        82.4965   66.6360   45.5776 H         1 MAL         0.0391
     39 H5'        85.1837   65.5532   44.5375 H         1 MAL         0.0732
     40 H6'1       82.7632   66.5528   43.2460 H         1 MAL         0.0291
     41 H6'2       84.0796   67.7580   43.0432 H         1 MAL         0.0291
     42 HO1'       87.1726   67.0089   47.6573 H         1 MAL         0.3834
     43 HO3'       82.9841   64.7727   48.8185 H         1 MAL         0.4001
     44 HO6'       84.1753   66.0028   41.1889 H         1 MAL         0.3831
@<TRIPOS>BOND
     1    1    2 1
     2    1    7 1
     3    1   11 1
     4    1   24 1
     5    2    3 1
     6    2    8 1
     7    2   25 1
     8    3    4 1
     9    3    9 1
    10    3   26 1
    11    4    5 1
    12    4   10 1
    13    4   27 1
    14    5    6 1
    15    5   11 1
    16    5   28 1
    17    6   12 1
    18    6   29 1
    19    6   30 1
    20    7   16 1
    21    8   31 1
    22    9   32 1
    23   10   33 1
    24   12   34 1
    25   13   14 1
    26   13   19 1
    27   13   22 1
    28   13   35 1
    29   14   15 1
    30   14   20 1
    31   14   36 1
    32   15   16 1
    33   15   21 1
    34   15   37 1
    35   16   17 1
    36   16   38 1
    37   17   18 1
    38   17   22 1
    39   17   39 1
    40   18   23 1
    41   18   40 1
    42   18   41 1
    43   19   42 1
    44   21   43 1
    45   23   44 1
@<TRIPOS>SUBSTRUCTURE
     1 MAL         1 GROUP   0 A     ****
@<TRIPOS>MOLECULE
2,3-dihydroxy-6-(hydroxymethyl)-5-[3,4,5-trihydroxy-6-(hydroxymethyl)tetrahydropyran-2-yl]oxy-tetrahydropyran-4-olate
   44    45     1     0     0
SMALL
USER_CHARGES

@<TRIPOS>ATOM
      1 C1         81.3110   64.7430   44.7180 C.3       1 MAL         0.2970
      2 C2         80.6630   63.5580   45.4040 C.3       1 MAL         0.1307
      3 C3         81.1960   62.2940   44.7900 C.3       1 MAL         0.1148
      4 C4         80.8750   62.3250   43.3080 C.3       1 MAL         0.0778
      5 C5         81.5630   63.5230   42.6670 C.3       1 MAL         0.0744
      6 C6         81.2720   63.6930   41.2010 C.3       1 MAL         0.1364
      7 O1         82.6920   64.6720   44.9600 O.3       1 MAL        -0.4097
      8 O2         80.9470   63.5360   46.7970 O.3       1 MAL        -0.6056
      9 O3         80.5790   61.1520   45.3770 O.3       1 MAL        -0.5905
     10 O4         81.3410   61.1500   42.6620 O.3       1 MAL        -0.6049
     11 O5         81.1580   64.7380   43.3070 O.3       1 MAL        -0.4339
     12 O6         82.1520   64.6320   40.5650 O.3       1 MAL        -0.6057
     13 C1'        85.4010   67.4610   46.5160 C.3       1 MAL         0.3366
     14 C2'        84.4510   66.7680   47.4730 C.3       1 MAL         0.0027
     15 C3'        83.7780   65.5300   46.9150 C.3       1 MAL         0.4149
     16 C4'        83.2740   65.8600   45.5200 C.3       1 MAL         0.0141
     17 C5'        84.4050   66.3270   44.6070 C.3       1 MAL         0.1003
     18 C6'        83.8530   66.7020   43.2520 C.3       1 MAL         0.1269
     19 O1'        86.7270   67.0920   46.6550 O.3       1 MAL        -0.6152
     20 O2'        85.0120   66.5480   48.7770 O.3       1 MAL        -0.6385
     21 O3'        82.7470   65.0470   47.7800 O.3       1 MAL        -0.8508
     22 O5'        84.9780   67.5220   45.1480 O.3       1 MAL        -0.4862
     23 O6'        84.4550   65.8750   42.2450 O.3       1 MAL        -0.6199
     24 H1         80.8769   65.6868   45.0795 H         1 MAL         0.0672
     25 H2         79.5678   63.6335   45.3345 H         1 MAL         0.0715
     26 H3         82.2709   62.1822   44.9953 H         1 MAL         0.0846
     27 H4         79.7845   62.3309   43.1638 H         1 MAL         0.0471
     28 H5         82.6437   63.3770   42.8115 H         1 MAL         0.0902
     29 H61        81.3864   62.7257   40.6899 H         1 MAL         0.0371
     30 H62        80.2420   64.0566   41.0714 H         1 MAL         0.0371
     31 HO2        80.6373   64.3770   47.4348 H         1 MAL         0.4707
     32 HO3        80.6971   60.9551   46.4528 H         1 MAL         0.4049
     33 HO4        80.9663   60.1645   42.9756 H         1 MAL         0.3972
     34 HO6        82.0441   64.8469   39.4916 H         1 MAL         0.4261
     35 H1'        85.4508   68.5214   46.8041 H         1 MAL         0.0772
     36 H2'        83.6523   67.4971   47.6741 H         1 MAL         0.0687
     37 H3'        84.4621   64.6689   46.8928 H         1 MAL        -0.0704
     38 H4'        82.4965   66.6360   45.5776 H         1 MAL         0.0596
     39 H5'        85.1837   65.5532   44.5375 H         1 MAL         0.0508
     40 H6'1       82.7632   66.5528   43.2460 H         1 MAL         0.0429
     41 H6'2       84.0796   67.7580   43.0432 H         1 MAL         0.0429
     42 HO1'       87.1726   67.0089   47.6573 H         1 MAL         0.4133
     43 HO2'       85.5306   67.3664   49.2978 H         1 MAL         0.4009
     44 HO6'       84.1753   66.0028   41.1889 H         1 MAL         0.4145
@<TRIPOS>BOND
     1    1    2 1
     2    1    7 1
     3    1   11 1
     4    1   24 1
     5    2    3 1
     6    2    8 1
     7    2   25 1
     8    3    4 1
     9    3    9 1
    10    3   26 1
    11    4    5 1
    12    4   10 1
    13    4   27 1
    14    5    6 1
    15    5   11 1
    16    5   28 1
    17    6   12 1
    18    6   29 1
    19    6   30 1
    20    7   16 1
    21    8   31 1
    22    9   32 1
    23   10   33 1
    24   12   34 1
    25   13   14 1
    26   13   19 1
    27   13   22 1
    28   13   35 1
    29   14   15 1
    30   14   20 1
    31   14   36 1
    32   15   16 1
    33   15   21 1
    34   15   37 1
    35   16   17 1
    36   16   38 1
    37   17   18 1
    38   17   22 1
    39   17   39 1
    40   18   23 1
    41   18   40 1
    42   18   41 1
    43   19   42 1
    44   20   43 1
    45   23   44 1
@<TRIPOS>SUBSTRUCTURE
     1 MAL         1 GROUP   0 A     ****
@<TRIPOS>MOLECULE
3,4-dihydroxy-6-(hydroxymethyl)-5-[3,4,5-trihydroxy-6-(hydroxymethyl)tetrahydropyran-2-yl]oxy-tetrahydropyran-2-olate
   44    45     1     0     0
SMALL
USER_CHARGES

@<TRIPOS>ATOM
      1 C1         81.3110   64.7430   44.7180 C.3       1 MAL         0.2962
      2 C2         80.6630   63.5580   45.4040 C.3       1 MAL         0.1006
      3 C3         81.1960   62.2940   44.7900 C.3       1 MAL         0.0886
      4 C4         80.8750   62.3250   43.3080 C.3       1 MAL         0.1168
      5 C5         81.5630   63.5230   42.6670 C.3       1 MAL         0.1442
      6 C6         81.2720   63.6930   41.2010 C.3       1 MAL         0.1361
      7 O1         82.6920   64.6720   44.9600 O.3       1 MAL        -0.4377
      8 O2         80.9470   63.5360   46.7970 O.3       1 MAL        -0.6166
      9 O3         80.5790   61.1520   45.3770 O.3       1 MAL        -0.6238
     10 O4         81.3410   61.1500   42.6620 O.3       1 MAL        -0.6019
     11 O5         81.1580   64.7380   43.3070 O.3       1 MAL        -0.4277
     12 O6         82.1520   64.6320   40.5650 O.3       1 MAL        -0.5796
     13 C1'        85.4010   67.4610   46.5160 C.3       1 MAL         0.5496
     14 C2'        84.4510   66.7680   47.4730 C.3       1 MAL         0.0206
     15 C3'        83.7780   65.5300   46.9150 C.3       1 MAL         0.1091
     16 C4'        83.2740   65.8600   45.5200 C.3       1 MAL         0.1117
     17 C5'        84.4050   66.3270   44.6070 C.3       1 MAL         0.1344
     18 C6'        83.8530   66.7020   43.2520 C.3       1 MAL         0.1283
     19 O1'        86.7270   67.0920   46.6550 O.3       1 MAL        -0.8030
     20 O2'        85.0120   66.5480   48.7770 O.3       1 MAL        -0.6348
     21 O3'        82.7470   65.0470   47.7800 O.3       1 MAL        -0.6543
     22 O5'        84.9780   67.5220   45.1480 O.3       1 MAL        -0.5229
     23 O6'        84.4550   65.8750   42.2450 O.3       1 MAL        -0.6295
     24 H1         80.8769   65.6868   45.0795 H         1 MAL         0.1062
     25 H2         79.5678   63.6335   45.3345 H         1 MAL         0.0634
     26 H3         82.2709   62.1822   44.9953 H         1 MAL         0.0733
     27 H4         79.7845   62.3309   43.1638 H         1 MAL         0.0451
     28 H5         82.6437   63.3770   42.8115 H         1 MAL         0.0944
     29 H61        81.3864   62.7257   40.6899 H         1 MAL         0.0339
     30 H62        80.2420   64.0566   41.0714 H         1 MAL         0.0339
     31 HO2        80.6373   64.3770   47.4348 H         1 MAL         0.4445
     32 HO3        80.6971   60.9551   46.4528 H         1 MAL         0.4241
     33 HO4        80.9663   60.1645   42.9756 H         1 MAL         0.4161
     34 HO6        82.0441   64.8469   39.4916 H         1 MAL         0.3923
     35 H1'        85.4508   68.5214   46.8041 H         1 MAL        -0.0633
     36 H2'        83.6523   67.4971   47.6741 H         1 MAL         0.0165
     37 H3'        84.4621   64.6689   46.8928 H         1 MAL         0.0634
     38 H4'        82.4965   66.6360   45.5776 H         1 MAL         0.0688
     39 H5'        85.1837   65.5532   44.5375 H         1 MAL         0.0363
     40 H6'1       82.7632   66.5528   43.2460 H         1 MAL         0.0355
     41 H6'2       84.0796   67.7580   43.0432 H         1 MAL         0.0355
     42 HO2'       85.5306   67.3664   49.2978 H         1 MAL         0.4406
     43 HO3'       82.9841   64.7727   48.8185 H         1 MAL         0.4079
     44 HO6'       84.1753   66.0028   41.1889 H         1 MAL         0.4274
@<TRIPOS>BOND
     1    1    2 1
     2    1    7 1
     3    1   11 1
     4    1   24 1
     5    2    3 1
     6    2    8 1
     7    2   25 1
     8    3    4 1
     9    3    9 1
    10    3   26 1
    11    4    5 1
    12    4   10 1
    13    4   27 1
    14    5    6 1
    15    5   11 1
    16    5   28 1
    17    6   12 1
    18    6   29 1
    19    6   30 1
    20    7   16 1
    21    8   31 1
    22    9   32 1
    23   10   33 1
    24   12   34 1
    25   13   14 1
    26   13   19 1
    27   13   22 1
    28   13   35 1
    29   14   15 1
    30   14   20 1
    31   14   36 1
    32   15   16 1
    33   15   21 1
    34   15   37 1
    35   16   17 1
    36   16   38 1
    37   17   18 1
    38   17   22 1
    39   17   39 1
    40   18   23 1
    41   18   40 1
    42   18   41 1
    43   20   42 1
    44   21   43 1
    45   23   44 1
@<TRIPOS>SUBSTRUCTURE
     1 MAL         1 GROUP   0 A     ****
@<TRIPOS>MOLECULE
4,5-dihydroxy-2-(hydroxymethyl)-6-[4,5,6-trihydroxy-2-(hydroxymethyl)tetrahydropyran-3-yl]oxy-tetrahydropyran-3-olate
   44    45     1     0     0
SMALL
USER_CHARGES

@<TRIPOS>ATOM
      1 C1         81.3110   64.7430   44.7180 C.3       1 MAL         0.3041
      2 C2         80.6630   63.5580   45.4040 C.3       1 MAL         0.1037
      3 C3         81.1960   62.2940   44.7900 C.3       1 MAL         0.0086
      4 C4         80.8750   62.3250   43.3080 C.3       1 MAL         0.4071
      5 C5         81.5630   63.5230   42.6670 C.3       1 MAL         0.0611
      6 C6         81.2720   63.6930   41.2010 C.3       1 MAL         0.0947
      7 O1         82.6920   64.6720   44.9600 O.3       1 MAL        -0.3952
      8 O2         80.9470   63.5360   46.7970 O.3       1 MAL        -0.6327
      9 O3         80.5790   61.1520   45.3770 O.3       1 MAL        -0.6124
     10 O4         81.3410   61.1500   42.6620 O.3       1 MAL        -0.8623
     11 O5         81.1580   64.7380   43.3070 O.3       1 MAL        -0.4019
     12 O6         82.1520   64.6320   40.5650 O.3       1 MAL        -0.6002
     13 C1'        85.4010   67.4610   46.5160 C.3       1 MAL         0.3040
     14 C2'        84.4510   66.7680   47.4730 C.3       1 MAL         0.1346
     15 C3'        83.7780   65.5300   46.9150 C.3       1 MAL         0.1196
     16 C4'        83.2740   65.8600   45.5200 C.3       1 MAL         0.0856
     17 C5'        84.4050   66.3270   44.6070 C.3       1 MAL         0.0843
     18 C6'        83.8530   66.7020   43.2520 C.3       1 MAL         0.1298
     19 O1'        86.7270   67.0920   46.6550 O.3       1 MAL        -0.6367
     20 O2'        85.0120   66.5480   48.7770 O.3       1 MAL        -0.5818
     21 O3'        82.7470   65.0470   47.7800 O.3       1 MAL        -0.6076
     22 O5'        84.9780   67.5220   45.1480 O.3       1 MAL        -0.4673
     23 O6'        84.4550   65.8750   42.2450 O.3       1 MAL        -0.6001
     24 H1         80.8769   65.6868   45.0795 H         1 MAL         0.0137
     25 H2         79.5678   63.6335   45.3345 H         1 MAL         0.0206
     26 H3         82.2709   62.1822   44.9953 H         1 MAL         0.0426
     27 H4         79.7845   62.3309   43.1638 H         1 MAL        -0.0528
     28 H5         82.6437   63.3770   42.8115 H         1 MAL         0.0871
     29 H61        81.3864   62.7257   40.6899 H         1 MAL         0.0236
     30 H62        80.2420   64.0566   41.0714 H         1 MAL         0.0236
     31 HO2        80.6373   64.3770   47.4348 H         1 MAL         0.4710
     32 HO3        80.6971   60.9551   46.4528 H         1 MAL         0.3640
     33 HO6        82.0441   64.8469   39.4916 H         1 MAL         0.3832
     34 H1'        85.4508   68.5214   46.8041 H         1 MAL         0.0688
     35 H2'        83.6523   67.4971   47.6741 H         1 MAL         0.0954
     36 H3'        84.4621   64.6689   46.8928 H         1 MAL         0.0618
     37 H4'        82.4965   66.6360   45.5776 H         1 MAL         0.0617
     38 H5'        85.1837   65.5532   44.5375 H         1 MAL         0.0757
     39 H6'1       82.7632   66.5528   43.2460 H         1 MAL         0.0684
     40 H6'2       84.0796   67.7580   43.0432 H         1 MAL         0.0684
     41 HO1'       87.1726   67.0089   47.6573 H         1 MAL         0.4199
     42 HO2'       85.5306   67.3664   49.2978 H         1 MAL         0.4137
     43 HO3'       82.9841   64.7727   48.8185 H         1 MAL         0.4491
     44 HO6'       84.1753   66.0028   41.1889 H         1 MAL         0.4016
@<TRIPOS>BOND
     1    1    2 1
     2    1    7 1
     3    1   11 1
     4    1   24 1
     5    2    3 1
     6    2    8 1
     7    2   25 1
     8    3    4 1
     9    3    9 1
    10    3   26 1
    11    4    5 1
    12    4   10 1
    13    4   27 1
    14    5    6 1
    15    5   11 1
    16    5   28 1
    17    6   12 1
    18    6   29 1
    19    6   30 1
    20    7   16 1
    21    8   31 1
    22    9   32 1
    23   12   33 1
    24   13   14 1
    25   13   19 1
    26   13   22 1
    27   13   34 1
    28   14   15 1
    29   14   20 1
    30   14   35 1
    31   15   16 1
    32   15   21 1
    33   15   36 1
    34   16   17 1
    35   16   37 1
    36   17   18 1
    37   17   22 1
    38   17   38 1
    39   18   23 1
    40   18   39 1
    41   18   40 1
    42   19   41 1
    43   20   42 1
    44   21   43 1
    45   23   44 1
@<TRIPOS>SUBSTRUCTURE
     1 MAL         1 GROUP   0 A     ****
@<TRIPOS>MOLECULE
3,5-dihydroxy-2-(hydroxymethyl)-6-[4,5,6-trihydroxy-2-(hydroxymethyl)tetrahydropyran-3-yl]oxy-tetrahydropyran-4-olate
   44    45     1     0     0
SMALL
USER_CHARGES

@<TRIPOS>ATOM
      1 C1         81.3110   64.7430   44.7180 C.3       1 MAL         0.2946
      2 C2         80.6630   63.5580   45.4040 C.3       1 MAL         0.0163
      3 C3         81.1960   62.2940   44.7900 C.3       1 MAL         0.3981
      4 C4         80.8750   62.3250   43.3080 C.3       1 MAL         0.0231
      5 C5         81.5630   63.5230   42.6670 C.3       1 MAL         0.1543
      6 C6         81.2720   63.6930   41.2010 C.3       1 MAL         0.1189
      7 O1         82.6920   64.6720   44.9600 O.3       1 MAL        -0.4282
      8 O2         80.9470   63.5360   46.7970 O.3       1 MAL        -0.6022
      9 O3         80.5790   61.1520   45.3770 O.3       1 MAL        -0.8622
     10 O4         81.3410   61.1500   42.6620 O.3       1 MAL        -0.6365
     11 O5         81.1580   64.7380   43.3070 O.3       1 MAL        -0.4210
     12 O6         82.1520   64.6320   40.5650 O.3       1 MAL        -0.5982
     13 C1'        85.4010   67.4610   46.5160 C.3       1 MAL         0.3030
     14 C2'        84.4510   66.7680   47.4730 C.3       1 MAL         0.1340
     15 C3'        83.7780   65.5300   46.9150 C.3       1 MAL         0.1145
     16 C4'        83.2740   65.8600   45.5200 C.3       1 MAL         0.0863
     17 C5'        84.4050   66.3270   44.6070 C.3       1 MAL         0.0871
     18 C6'        83.8530   66.7020   43.2520 C.3       1 MAL         0.1295
     19 O1'        86.7270   67.0920   46.6550 O.3       1 MAL        -0.6389
     20 O2'        85.0120   66.5480   48.7770 O.3       1 MAL        -0.5804
     21 O3'        82.7470   65.0470   47.7800 O.3       1 MAL        -0.5965
     22 O5'        84.9780   67.5220   45.1480 O.3       1 MAL        -0.4638
     23 O6'        84.4550   65.8750   42.2450 O.3       1 MAL        -0.6028
     24 H1         80.8769   65.6868   45.0795 H         1 MAL         0.0440
     25 H2         79.5678   63.6335   45.3345 H         1 MAL         0.0389
     26 H3         82.2709   62.1822   44.9953 H         1 MAL        -0.0439
     27 H4         79.7845   62.3309   43.1638 H         1 MAL         0.0205
     28 H5         82.6437   63.3770   42.8115 H         1 MAL         0.0750
     29 H61        81.3864   62.7257   40.6899 H         1 MAL         0.0323
     30 H62        80.2420   64.0566   41.0714 H         1 MAL         0.0323
     31 HO2        80.6373   64.3770   47.4348 H         1 MAL         0.3795
     32 HO4        80.9663   60.1645   42.9756 H         1 MAL         0.4209
     33 HO6        82.0441   64.8469   39.4916 H         1 MAL         0.3775
     34 H1'        85.4508   68.5214   46.8041 H         1 MAL         0.0714
     35 H2'        83.6523   67.4971   47.6741 H         1 MAL         0.1014
     36 H3'        84.4621   64.6689   46.8928 H         1 MAL         0.0591
     37 H4'        82.4965   66.6360   45.5776 H         1 MAL         0.0819
     38 H5'        85.1837   65.5532   44.5375 H         1 MAL         0.0719
     39 H6'1       82.7632   66.5528   43.2460 H         1 MAL         0.0718
     40 H6'2       84.0796   67.7580   43.0432 H         1 MAL         0.0718
     41 HO1'       87.1726   67.0089   47.6573 H         1 MAL         0.4198
     42 HO2'       85.5306   67.3664   49.2978 H         1 MAL         0.4125
     43 HO3'       82.9841   64.7727   48.8185 H         1 MAL         0.4299
     44 HO6'       84.1753   66.0028   41.1889 H         1 MAL         0.4029
@<TRIPOS>BOND
     1    1    2 1
     2    1    7 1
     3    1   11 1
     4    1   24 1
     5    2    3 1
     6    2    8 1
     7    2   25 1
     8    3    4 1
     9    3    9 1
    10    3   26 1
    11    4    5 1
    12    4   10 1
    13    4   27 1
    14    5    6 1
    15    5   11 1
    16    5   28 1
    17    6   12 1
    18    6   29 1
    19    6   30 1
    20    7   16 1
    21    8   31 1
    22   10   32 1
    23   12   33 1
    24   13   14 1
    25   13   19 1
    26   13   22 1
    27   13   34 1
    28   14   15 1
    29   14   20 1
    30   14   35 1
    31   15   16 1
    32   15   21 1
    33   15   36 1
    34   16   17 1
    35   16   37 1
    36   17   18 1
    37   17   22 1
    38   17   38 1
    39   18   23 1
    40   18   39 1
    41   18   40 1
    42   19   41 1
    43   20   42 1
    44   21   43 1
    45   23   44 1
@<TRIPOS>SUBSTRUCTURE
     1 MAL         1 GROUP   0 A     ****
