@<TRIPOS>MOLECULE
(4-formyl-6-methyl-5-oxido-1~{H}-pyridin-6-ylium-3-yl)methyl hydrogen phosphate
   25    25     1     0     0
SMALL
USER_CHARGES

@<TRIPOS>ATOM
      1 N1        -14.3330   14.0520   -8.3860 N.pl3     1 PLP        -0.3582
      2 C2        -13.0670   14.1640   -7.9320 C.cat     1 PLP        -0.1426
      3 C2A       -12.5230   15.5540   -7.6740 C.3       1 PLP        -0.0465
      4 C3        -12.3130   12.9900   -7.7180 C.ar      1 PLP         0.4813
      5 O3        -11.0530   13.1590   -7.2400 O.3       1 PLP        -0.5818
      6 C4        -12.8690   11.7450   -7.9410 C.ar      1 PLP        -0.2615
      7 C4A       -12.0000   10.5750   -8.1130 C.2       1 PLP         0.5978
      8 O4A       -10.8480   10.7480   -8.7890 O.2       1 PLP        -0.5339
      9 C5        -14.2050   11.7230   -8.4280 C.ar      1 PLP         0.0240
     10 C6        -14.9090   12.8520   -8.6360 C.ar      1 PLP        -0.1078
     11 C5A       -14.8540   10.3400   -8.6840 C.3       1 PLP         0.2030
     12 O4P       -14.9550    9.6800   -7.4040 O.3       1 PLP        -0.5647
     13 P         -15.9170    8.4130   -7.1770 P.3       1 PLP         1.4193
     14 O1P       -15.4670    7.4080   -8.2390 O.2       1 PLP        -0.8343
     15 O2P       -15.6850    7.9810   -5.7620 O.3       1 PLP        -0.8343
     16 O3P       -17.2790    8.8940   -7.4180 O.3       1 PLP        -0.7658
     17 H2A1      -13.2947   16.3002   -7.9141 H         1 PLP         0.0484
     18 H2A2      -11.6387   15.7247   -8.3056 H         1 PLP         0.0484
     19 H2A3      -12.2405   15.6464   -6.6149 H         1 PLP         0.0484
     20 H4A       -12.2596    9.5836   -7.7132 H         1 PLP         0.0324
     21 H6        -15.9460   12.7940   -9.0070 H         1 PLP         0.1768
     22 H5A1      -15.8498   10.4792   -9.1300 H         1 PLP         0.0414
     23 H5A2      -14.2218    9.7600   -9.3724 H         1 PLP         0.0414
     24 HOP3      -17.5709    9.2394   -8.4207 H         1 PLP         0.4289
     25 H25       -14.9348   14.9551   -8.5657 H         1 PLP         0.4400
@<TRIPOS>BOND
     1    1    2 ar
     2    1   10 ar
     3    1   25 1
     4    2    3 1
     5    2    4 ar
     6    3   17 1
     7    3   18 1
     8    3   19 1
     9    4    5 1
    10    4    6 ar
    11    6    7 1
    12    6    9 ar
    13    7    8 2
    14    7   20 1
    15    9   10 ar
    16    9   11 1
    17   10   21 1
    18   11   12 1
    19   11   22 1
    20   11   23 1
    21   12   13 1
    22   13   14 2
    23   13   15 1
    24   13   16 1
    25   16   24 1
@<TRIPOS>SUBSTRUCTURE
     1 PLP         1 GROUP   0 A     ****
@<TRIPOS>MOLECULE
4-formyl-2-methyl-5-(phosphonooxymethyl)-1~{H}-pyridin-2-ylium-3-olate
   26    26     1     0     0
SMALL
USER_CHARGES

@<TRIPOS>ATOM
      1 N1        -14.3330   14.0520   -8.3860 N.pl3     1 PLP        -0.3445
      2 C2        -13.0670   14.1640   -7.9320 C.cat     1 PLP        -0.0792
      3 C2A       -12.5230   15.5540   -7.6740 C.3       1 PLP        -0.0569
      4 C3        -12.3130   12.9900   -7.7180 C.ar      1 PLP         0.4813
      5 O3        -11.0530   13.1590   -7.2400 O.3       1 PLP        -0.5213
      6 C4        -12.8690   11.7450   -7.9410 C.ar      1 PLP        -0.3076
      7 C4A       -12.0000   10.5750   -8.1130 C.2       1 PLP         0.5791
      8 O4A       -10.8480   10.7480   -8.7890 O.2       1 PLP        -0.4955
      9 C5        -14.2050   11.7230   -8.4280 C.ar      1 PLP         0.0207
     10 C6        -14.9090   12.8520   -8.6360 C.ar      1 PLP        -0.1406
     11 C5A       -14.8540   10.3400   -8.6840 C.3       1 PLP         0.2012
     12 O4P       -14.9550    9.6800   -7.4040 O.3       1 PLP        -0.5611
     13 P         -15.9170    8.4130   -7.1770 P.3       1 PLP         1.6350
     14 O1P       -15.4670    7.4080   -8.2390 O.2       1 PLP        -0.8124
     15 O2P       -15.6850    7.9810   -5.7620 O.3       1 PLP        -0.7684
     16 O3P       -17.2790    8.8940   -7.4180 O.3       1 PLP        -0.7684
     17 H2A1      -13.2947   16.3002   -7.9141 H         1 PLP         0.0662
     18 H2A2      -11.6387   15.7247   -8.3056 H         1 PLP         0.0662
     19 H2A3      -12.2405   15.6464   -6.6149 H         1 PLP         0.0662
     20 H4A       -12.2596    9.5836   -7.7132 H         1 PLP        -0.0206
     21 H6        -15.9460   12.7940   -9.0070 H         1 PLP         0.1876
     22 H5A1      -15.8498   10.4792   -9.1300 H         1 PLP         0.0702
     23 H5A2      -14.2218    9.7600   -9.3724 H         1 PLP         0.0702
     24 HOP2      -14.6990    7.5998   -5.4580 H         1 PLP         0.4914
     25 HOP3      -17.5709    9.2394   -8.4207 H         1 PLP         0.4914
     26 H26       -14.9348   14.9551   -8.5657 H         1 PLP         0.4502
@<TRIPOS>BOND
     1    1    2 ar
     2    1   10 ar
     3    1   26 1
     4    2    3 1
     5    2    4 ar
     6    3   17 1
     7    3   18 1
     8    3   19 1
     9    4    5 1
    10    4    6 ar
    11    6    7 1
    12    6    9 ar
    13    7    8 2
    14    7   20 1
    15    9   10 ar
    16    9   11 1
    17   10   21 1
    18   11   12 1
    19   11   22 1
    20   11   23 1
    21   12   13 1
    22   13   14 2
    23   13   15 1
    24   13   16 1
    25   15   24 1
    26   16   25 1
@<TRIPOS>SUBSTRUCTURE
     1 PLP         1 GROUP   0 A     ****
@<TRIPOS>MOLECULE
(4-formyl-5-hydroxy-6-methyl-1~{H}-pyridin-6-ylium-3-yl)methyl hydrogen phosphate
   26    26     1     0     0
SMALL
USER_CHARGES

@<TRIPOS>ATOM
      1 N1        -14.3330   14.0520   -8.3860 N.pl3     1 PLP        -0.4100
      2 C2        -13.0670   14.1640   -7.9320 C.cat     1 PLP         0.0345
      3 C2A       -12.5230   15.5540   -7.6740 C.3       1 PLP        -0.0736
      4 C3        -12.3130   12.9900   -7.7180 C.ar      1 PLP         0.1767
      5 O3        -11.0530   13.1590   -7.2400 O.3       1 PLP        -0.4765
      6 C4        -12.8690   11.7450   -7.9410 C.ar      1 PLP        -0.1943
      7 C4A       -12.0000   10.5750   -8.1130 C.2       1 PLP         0.5791
      8 O4A       -10.8480   10.7480   -8.7890 O.2       1 PLP        -0.5150
      9 C5        -14.2050   11.7230   -8.4280 C.ar      1 PLP         0.0051
     10 C6        -14.9090   12.8520   -8.6360 C.ar      1 PLP         0.0657
     11 C5A       -14.8540   10.3400   -8.6840 C.3       1 PLP         0.2114
     12 O4P       -14.9550    9.6800   -7.4040 O.3       1 PLP        -0.5737
     13 P         -15.9170    8.4130   -7.1770 P.3       1 PLP         1.4244
     14 O1P       -15.4670    7.4080   -8.2390 O.2       1 PLP        -0.8050
     15 O2P       -15.6850    7.9810   -5.7620 O.3       1 PLP        -0.8050
     16 O3P       -17.2790    8.8940   -7.4180 O.3       1 PLP        -0.7925
     17 H2A1      -13.2947   16.3002   -7.9141 H         1 PLP         0.0825
     18 H2A2      -11.6387   15.7247   -8.3056 H         1 PLP         0.0825
     19 H2A3      -12.2405   15.6464   -6.6149 H         1 PLP         0.0825
     20 HO3       -10.6569   14.1726   -7.0798 H         1 PLP         0.4802
     21 H4A       -12.2596    9.5836   -7.7132 H         1 PLP         0.0698
     22 H6        -15.9460   12.7940   -9.0070 H         1 PLP         0.2604
     23 H5A1      -15.8498   10.4792   -9.1300 H         1 PLP         0.0822
     24 H5A2      -14.2218    9.7600   -9.3724 H         1 PLP         0.0822
     25 HOP3      -17.5709    9.2394   -8.4207 H         1 PLP         0.4382
     26 H26       -14.9348   14.9551   -8.5657 H         1 PLP         0.4883
@<TRIPOS>BOND
     1    1    2 ar
     2    1   10 ar
     3    1   26 1
     4    2    3 1
     5    2    4 ar
     6    3   17 1
     7    3   18 1
     8    3   19 1
     9    4    5 1
    10    4    6 ar
    11    5   20 1
    12    6    7 1
    13    6    9 ar
    14    7    8 2
    15    7   21 1
    16    9   10 ar
    17    9   11 1
    18   10   22 1
    19   11   12 1
    20   11   23 1
    21   11   24 1
    22   12   13 1
    23   13   14 2
    24   13   15 1
    25   13   16 1
    26   16   25 1
@<TRIPOS>SUBSTRUCTURE
     1 PLP         1 GROUP   0 A     ****
@<TRIPOS>MOLECULE
(4-formyl-6-methyl-5-oxido-1~{H}-pyridin-6-ylium-3-yl)methyl phosphate
   24    24     1     0     0
SMALL
USER_CHARGES

@<TRIPOS>ATOM
      1 N1        -14.3330   14.0520   -8.3860 N.pl3     1 PLP        -0.3669
      2 C2        -13.0670   14.1640   -7.9320 C.cat     1 PLP        -0.2006
      3 C2A       -12.5230   15.5540   -7.6740 C.3       1 PLP        -0.0265
      4 C3        -12.3130   12.9900   -7.7180 C.ar      1 PLP         0.4855
      5 O3        -11.0530   13.1590   -7.2400 O.3       1 PLP        -0.6239
      6 C4        -12.8690   11.7450   -7.9410 C.ar      1 PLP        -0.2708
      7 C4A       -12.0000   10.5750   -8.1130 C.2       1 PLP         0.6014
      8 O4A       -10.8480   10.7480   -8.7890 O.2       1 PLP        -0.5780
      9 C5        -14.2050   11.7230   -8.4280 C.ar      1 PLP         0.0298
     10 C6        -14.9090   12.8520   -8.6360 C.ar      1 PLP        -0.0797
     11 C5A       -14.8540   10.3400   -8.6840 C.3       1 PLP         0.2335
     12 O4P       -14.9550    9.6800   -7.4040 O.3       1 PLP        -0.5470
     13 P         -15.9170    8.4130   -7.1770 P.3       1 PLP         1.3096
     14 O1P       -15.4670    7.4080   -8.2390 O.2       1 PLP        -0.9250
     15 O2P       -15.6850    7.9810   -5.7620 O.3       1 PLP        -0.9250
     16 O3P       -17.2790    8.8940   -7.4180 O.3       1 PLP        -0.9250
     17 H2A1      -13.2947   16.3002   -7.9141 H         1 PLP         0.0310
     18 H2A2      -11.6387   15.7247   -8.3056 H         1 PLP         0.0310
     19 H2A3      -12.2405   15.6464   -6.6149 H         1 PLP         0.0310
     20 H4A       -12.2596    9.5836   -7.7132 H         1 PLP         0.0555
     21 H6        -15.9460   12.7940   -9.0070 H         1 PLP         0.1903
     22 H5A1      -15.8498   10.4792   -9.1300 H         1 PLP         0.0234
     23 H5A2      -14.2218    9.7600   -9.3724 H         1 PLP         0.0234
     24 H24       -14.9348   14.9551   -8.5657 H         1 PLP         0.4230
@<TRIPOS>BOND
     1    1    2 ar
     2    1   10 ar
     3    1   24 1
     4    2    3 1
     5    2    4 ar
     6    3   17 1
     7    3   18 1
     8    3   19 1
     9    4    5 1
    10    4    6 ar
    11    6    7 1
    12    6    9 ar
    13    7    8 2
    14    7   20 1
    15    9   10 ar
    16    9   11 1
    17   10   21 1
    18   11   12 1
    19   11   22 1
    20   11   23 1
    21   12   13 1
    22   13   14 2
    23   13   15 1
    24   13   16 1
@<TRIPOS>SUBSTRUCTURE
     1 PLP         1 GROUP   0 A     ****
@<TRIPOS>MOLECULE
(4-formyl-5-hydroxy-6-methyl-3-pyridyl)methyl hydrogen phosphate
   25    25     1     0     0
SMALL
USER_CHARGES

@<TRIPOS>ATOM
      1 N1        -14.3330   14.0520   -8.3860 N.ar      1 PLP        -0.6308
      2 C2        -13.0670   14.1640   -7.9320 C.ar      1 PLP         0.2862
      3 C2A       -12.5230   15.5540   -7.6740 C.3       1 PLP        -0.1408
      4 C3        -12.3130   12.9900   -7.7180 C.ar      1 PLP         0.0342
      5 O3        -11.0530   13.1590   -7.2400 O.3       1 PLP        -0.5081
      6 C4        -12.8690   11.7450   -7.9410 C.ar      1 PLP        -0.1993
      7 C4A       -12.0000   10.5750   -8.1130 C.2       1 PLP         0.5770
      8 O4A       -10.8480   10.7480   -8.7890 O.2       1 PLP        -0.5191
      9 C5        -14.2050   11.7230   -8.4280 C.ar      1 PLP        -0.0729
     10 C6        -14.9090   12.8520   -8.6360 C.ar      1 PLP         0.3817
     11 C5A       -14.8540   10.3400   -8.6840 C.3       1 PLP         0.2088
     12 O4P       -14.9550    9.6800   -7.4040 O.3       1 PLP        -0.5891
     13 P         -15.9170    8.4130   -7.1770 P.3       1 PLP         1.4272
     14 O1P       -15.4670    7.4080   -8.2390 O.2       1 PLP        -0.8310
     15 O2P       -15.6850    7.9810   -5.7620 O.3       1 PLP        -0.8310
     16 O3P       -17.2790    8.8940   -7.4180 O.3       1 PLP        -0.7641
     17 H2A1      -13.2947   16.3002   -7.9141 H         1 PLP         0.0417
     18 H2A2      -11.6387   15.7247   -8.3056 H         1 PLP         0.0417
     19 H2A3      -12.2405   15.6464   -6.6149 H         1 PLP         0.0417
     20 HO3       -10.6569   14.1726   -7.0798 H         1 PLP         0.4177
     21 H4A       -12.2596    9.5836   -7.7132 H         1 PLP         0.0033
     22 H6        -15.9460   12.7940   -9.0070 H         1 PLP         0.0692
     23 H5A1      -15.8498   10.4792   -9.1300 H         1 PLP         0.0659
     24 H5A2      -14.2218    9.7600   -9.3724 H         1 PLP         0.0659
     25 HOP3      -17.5709    9.2394   -8.4207 H         1 PLP         0.4239
@<TRIPOS>BOND
     1    1    2 ar
     2    1   10 ar
     3    2    3 1
     4    2    4 ar
     5    3   17 1
     6    3   18 1
     7    3   19 1
     8    4    5 1
     9    4    6 ar
    10    5   20 1
    11    6    7 1
    12    6    9 ar
    13    7    8 2
    14    7   21 1
    15    9   10 ar
    16    9   11 1
    17   10   22 1
    18   11   12 1
    19   11   23 1
    20   11   24 1
    21   12   13 1
    22   13   14 2
    23   13   15 1
    24   13   16 1
    25   16   25 1
@<TRIPOS>SUBSTRUCTURE
     1 PLP         1 GROUP   0 A     ****
@<TRIPOS>MOLECULE
(4-formyl-5-hydroxy-6-methyl-1~{H}-pyridin-6-ylium-3-yl)methyl dihydrogen phosphate
   27    27     1     0     0
SMALL
USER_CHARGES

@<TRIPOS>ATOM
      1 N1        -14.3330   14.0520   -8.3860 N.pl3     1 PLP        -0.4146
      2 C2        -13.0670   14.1640   -7.9320 C.cat     1 PLP         0.0362
      3 C2A       -12.5230   15.5540   -7.6740 C.3       1 PLP        -0.0998
      4 C3        -12.3130   12.9900   -7.7180 C.ar      1 PLP         0.1546
      5 O3        -11.0530   13.1590   -7.2400 O.3       1 PLP        -0.4401
      6 C4        -12.8690   11.7450   -7.9410 C.ar      1 PLP        -0.0879
      7 C4A       -12.0000   10.5750   -8.1130 C.2       1 PLP         0.5647
      8 O4A       -10.8480   10.7480   -8.7890 O.2       1 PLP        -0.4252
      9 C5        -14.2050   11.7230   -8.4280 C.ar      1 PLP        -0.0383
     10 C6        -14.9090   12.8520   -8.6360 C.ar      1 PLP         0.0863
     11 C5A       -14.8540   10.3400   -8.6840 C.3       1 PLP         0.1943
     12 O4P       -14.9550    9.6800   -7.4040 O.3       1 PLP        -0.5712
     13 P         -15.9170    8.4130   -7.1770 P.3       1 PLP         1.6519
     14 O1P       -15.4670    7.4080   -8.2390 O.2       1 PLP        -0.7999
     15 O2P       -15.6850    7.9810   -5.7620 O.3       1 PLP        -0.7667
     16 O3P       -17.2790    8.8940   -7.4180 O.3       1 PLP        -0.7667
     17 H2A1      -13.2947   16.3002   -7.9141 H         1 PLP         0.0944
     18 H2A2      -11.6387   15.7247   -8.3056 H         1 PLP         0.0944
     19 H2A3      -12.2405   15.6464   -6.6149 H         1 PLP         0.0944
     20 HO3       -10.6569   14.1726   -7.0798 H         1 PLP         0.4592
     21 H4A       -12.2596    9.5836   -7.7132 H         1 PLP         0.0550
     22 H6        -15.9460   12.7940   -9.0070 H         1 PLP         0.2245
     23 H5A1      -15.8498   10.4792   -9.1300 H         1 PLP         0.0922
     24 H5A2      -14.2218    9.7600   -9.3724 H         1 PLP         0.0922
     25 HOP2      -14.6990    7.5998   -5.4580 H         1 PLP         0.5078
     26 HOP3      -17.5709    9.2394   -8.4207 H         1 PLP         0.5078
     27 H27       -14.9348   14.9551   -8.5657 H         1 PLP         0.5007
@<TRIPOS>BOND
     1    1    2 ar
     2    1   10 ar
     3    1   27 1
     4    2    3 1
     5    2    4 ar
     6    3   17 1
     7    3   18 1
     8    3   19 1
     9    4    5 1
    10    4    6 ar
    11    5   20 1
    12    6    7 1
    13    6    9 ar
    14    7    8 2
    15    7   21 1
    16    9   10 ar
    17    9   11 1
    18   10   22 1
    19   11   12 1
    20   11   23 1
    21   11   24 1
    22   12   13 1
    23   13   14 2
    24   13   15 1
    25   13   16 1
    26   15   25 1
    27   16   26 1
@<TRIPOS>SUBSTRUCTURE
     1 PLP         1 GROUP   0 A     ****
@<TRIPOS>MOLECULE
(4-formyl-5-hydroxy-6-methyl-3-pyridyl)methyl dihydrogen phosphate
   26    26     1     0     0
SMALL
USER_CHARGES

@<TRIPOS>ATOM
      1 N1        -14.3330   14.0520   -8.3860 N.ar      1 PLP        -0.6191
      2 C2        -13.0670   14.1640   -7.9320 C.ar      1 PLP         0.3341
      3 C2A       -12.5230   15.5540   -7.6740 C.3       1 PLP        -0.1544
      4 C3        -12.3130   12.9900   -7.7180 C.ar      1 PLP         0.0456
      5 O3        -11.0530   13.1590   -7.2400 O.3       1 PLP        -0.4961
      6 C4        -12.8690   11.7450   -7.9410 C.ar      1 PLP        -0.1859
      7 C4A       -12.0000   10.5750   -8.1130 C.2       1 PLP         0.5831
      8 O4A       -10.8480   10.7480   -8.7890 O.2       1 PLP        -0.5353
      9 C5        -14.2050   11.7230   -8.4280 C.ar      1 PLP        -0.1199
     10 C6        -14.9090   12.8520   -8.6360 C.ar      1 PLP         0.3852
     11 C5A       -14.8540   10.3400   -8.6840 C.3       1 PLP         0.2038
     12 O4P       -14.9550    9.6800   -7.4040 O.3       1 PLP        -0.5535
     13 P         -15.9170    8.4130   -7.1770 P.3       1 PLP         1.6418
     14 O1P       -15.4670    7.4080   -8.2390 O.2       1 PLP        -0.8264
     15 O2P       -15.6850    7.9810   -5.7620 O.3       1 PLP        -0.7648
     16 O3P       -17.2790    8.8940   -7.4180 O.3       1 PLP        -0.7648
     17 H2A1      -13.2947   16.3002   -7.9141 H         1 PLP         0.0575
     18 H2A2      -11.6387   15.7247   -8.3056 H         1 PLP         0.0575
     19 H2A3      -12.2405   15.6464   -6.6149 H         1 PLP         0.0575
     20 HO3       -10.6569   14.1726   -7.0798 H         1 PLP         0.4338
     21 H4A       -12.2596    9.5836   -7.7132 H         1 PLP         0.0307
     22 H6        -15.9460   12.7940   -9.0070 H         1 PLP         0.0519
     23 H5A1      -15.8498   10.4792   -9.1300 H         1 PLP         0.0830
     24 H5A2      -14.2218    9.7600   -9.3724 H         1 PLP         0.0830
     25 HOP2      -14.6990    7.5998   -5.4580 H         1 PLP         0.4858
     26 HOP3      -17.5709    9.2394   -8.4207 H         1 PLP         0.4858
@<TRIPOS>BOND
     1    1    2 ar
     2    1   10 ar
     3    2    3 1
     4    2    4 ar
     5    3   17 1
     6    3   18 1
     7    3   19 1
     8    4    5 1
     9    4    6 ar
    10    5   20 1
    11    6    7 1
    12    6    9 ar
    13    7    8 2
    14    7   21 1
    15    9   10 ar
    16    9   11 1
    17   10   22 1
    18   11   12 1
    19   11   23 1
    20   11   24 1
    21   12   13 1
    22   13   14 2
    23   13   15 1
    24   13   16 1
    25   15   25 1
    26   16   26 1
@<TRIPOS>SUBSTRUCTURE
     1 PLP         1 GROUP   0 A     ****
@<TRIPOS>MOLECULE
(4-formyl-5-hydroxy-6-methyl-1~{H}-pyridin-6-ylium-3-yl)methyl phosphate
   25    25     1     0     0
SMALL
USER_CHARGES

@<TRIPOS>ATOM
      1 N1        -14.3330   14.0520   -8.3860 N.pl3     1 PLP        -0.3611
      2 C2        -13.0670   14.1640   -7.9320 C.cat     1 PLP        -0.3470
      3 C2A       -12.5230   15.5540   -7.6740 C.3       1 PLP         0.0073
      4 C3        -12.3130   12.9900   -7.7180 C.ar      1 PLP         0.2725
      5 O3        -11.0530   13.1590   -7.2400 O.3       1 PLP        -0.4820
      6 C4        -12.8690   11.7450   -7.9410 C.ar      1 PLP        -0.3255
      7 C4A       -12.0000   10.5750   -8.1130 C.2       1 PLP         0.6009
      8 O4A       -10.8480   10.7480   -8.7890 O.2       1 PLP        -0.5884
      9 C5        -14.2050   11.7230   -8.4280 C.ar      1 PLP        -0.1434
     10 C6        -14.9090   12.8520   -8.6360 C.ar      1 PLP         0.0895
     11 C5A       -14.8540   10.3400   -8.6840 C.3       1 PLP         0.1963
     12 O4P       -14.9550    9.6800   -7.4040 O.3       1 PLP        -0.5106
     13 P         -15.9170    8.4130   -7.1770 P.3       1 PLP         1.3398
     14 O1P       -15.4670    7.4080   -8.2390 O.2       1 PLP        -0.7063
     15 O2P       -15.6850    7.9810   -5.7620 O.3       1 PLP        -0.7063
     16 O3P       -17.2790    8.8940   -7.4180 O.3       1 PLP        -0.7063
     17 H2A1      -13.2947   16.3002   -7.9141 H         1 PLP         0.0198
     18 H2A2      -11.6387   15.7247   -8.3056 H         1 PLP         0.0198
     19 H2A3      -12.2405   15.6464   -6.6149 H         1 PLP         0.0198
     20 HO3       -10.6569   14.1726   -7.0798 H         1 PLP         0.4070
     21 H4A       -12.2596    9.5836   -7.7132 H         1 PLP        -0.0227
     22 H6        -15.9460   12.7940   -9.0070 H         1 PLP         0.1927
     23 H5A1      -15.8498   10.4792   -9.1300 H         1 PLP         0.1507
     24 H5A2      -14.2218    9.7600   -9.3724 H         1 PLP         0.1507
     25 H25       -14.9348   14.9551   -8.5657 H         1 PLP         0.4329
@<TRIPOS>BOND
     1    1    2 ar
     2    1   10 ar
     3    1   25 1
     4    2    3 1
     5    2    4 ar
     6    3   17 1
     7    3   18 1
     8    3   19 1
     9    4    5 1
    10    4    6 ar
    11    5   20 1
    12    6    7 1
    13    6    9 ar
    14    7    8 2
    15    7   21 1
    16    9   10 ar
    17    9   11 1
    18   10   22 1
    19   11   12 1
    20   11   23 1
    21   11   24 1
    22   12   13 1
    23   13   14 2
    24   13   15 1
    25   13   16 1
@<TRIPOS>SUBSTRUCTURE
     1 PLP         1 GROUP   0 A     ****
