@<TRIPOS>MOLECULE
acetaldehyde
    7     6     1     0     0
SMALL
USER_CHARGES

@<TRIPOS>ATOM
      1 C           0.7720  -10.0720    6.5780 C.2       1 ACE         0.5630
      2 O           1.9730  -10.2230    6.8620 O.2       1 ACE        -0.5271
      3 CH3        -0.3220  -10.6770    7.4050 C.3       1 ACE        -0.2213
      4 H           0.4855   -9.4795    5.6966 H         1 ACE        -0.0090
      5 H1         -1.2979  -10.4149    6.9703 H         1 ACE         0.0648
      6 H2         -0.2621  -10.2890    8.4326 H         1 ACE         0.0648
      7 H3         -0.2088  -11.7711    7.4189 H         1 ACE         0.0648
@<TRIPOS>BOND
     1    1    2 2
     2    1    3 1
     3    1    4 1
     4    3    5 1
     5    3    6 1
     6    3    7 1
@<TRIPOS>SUBSTRUCTURE
     1 ACE         1 GROUP   0 A     ****
