@<TRIPOS>MOLECULE
[[[5-(2-amino-6-oxido-purin-9-yl)-3,4-dihydroxy-tetrahydrofuran-2-yl]methoxy-oxido-phosphoryl]oxy-oxido-phosphoryl] phosphate
   43    45     1     0     0
SMALL
USER_CHARGES

@<TRIPOS>ATOM
      1 PG          4.5660   31.3910   21.6350 P.3       1 GTP         1.4381
      2 O1G         4.6130   31.9070   23.0690 O.2       1 GTP        -0.9686
      3 O2G         3.8920   32.3190   20.6310 O.3       1 GTP        -0.9686
      4 O3G         4.1430   30.0120   21.6130 O.3       1 GTP        -0.9686
      5 O3B         6.1600   31.3600   21.2280 O.3       1 GTP        -0.8130
      6 PB          6.8770   31.2020   19.7450 P.3       1 GTP         1.6730
      7 O1B         7.0790   29.7090   19.4730 O.2       1 GTP        -0.9258
      8 O2B         6.1250   31.9700   18.7490 O.3       1 GTP        -0.9258
      9 O3A         8.2510   31.8900   20.0030 O.3       1 GTP        -0.8060
     10 PA          8.8460   33.2610   19.4110 P.3       1 GTP         1.5802
     11 O1A         8.8880   33.2560   17.9570 O.2       1 GTP        -0.9126
     12 O2A         8.1050   34.3980   20.1290 O.3       1 GTP        -0.9126
     13 O5'        10.4300   33.1530   19.9000 O.3       1 GTP        -0.5589
     14 C5'        10.5490   33.0440   21.3780 C.3       1 GTP         0.2184
     15 C4'        12.0460   33.6180   21.4740 C.3       1 GTP         0.0760
     16 O4'        13.0520   32.8300   20.8180 O.3       1 GTP        -0.3801
     17 C3'        12.3070   34.9690   21.0570 C.3       1 GTP         0.0711
     18 O3'        13.1090   35.6720   21.9710 O.3       1 GTP        -0.6437
     19 C2'        12.8390   34.9710   19.5930 C.3       1 GTP         0.0985
     20 O2'        13.6720   35.9610   19.3550 O.3       1 GTP        -0.6215
     21 C1'        13.8460   33.6220   19.9270 C.3       1 GTP         0.4205
     22 N9         14.0010   32.8330   18.6490 N.pl3     1 GTP        -0.6995
     23 C8         12.9340   32.4520   17.8480 C.ar      1 GTP         0.4903
     24 N7         13.6400   31.7980   16.8990 N.ar      1 GTP        -0.5508
     25 C5         15.0290   31.8890   17.0010 C.ar      1 GTP        -0.2849
     26 C6         15.8990   31.3940   16.2380 C.ar      1 GTP         1.0033
     27 O6         15.9820   30.6800   15.1910 O.3       1 GTP        -0.8179
     28 N1         17.2740   31.6280   16.8000 N.ar      1 GTP        -0.9482
     29 C2         17.3040   32.2950   17.8960 C.ar      1 GTP         0.8357
     30 N2         18.6770   32.4500   18.4750 N.pl3     1 GTP        -0.9006
     31 N3         16.3840   32.7360   18.7390 N.ar      1 GTP        -0.8534
     32 C4         15.2180   32.5170   18.1350 C.ar      1 GTP         0.5741
     33 H5'         9.7718   33.6593   21.8548 H         1 GTP         0.0285
     34 H5''       10.4216   31.9939   21.6797 H         1 GTP         0.0285
     35 H4'        12.2583   33.6282   22.5533 H         1 GTP         0.0573
     36 H3'        11.3699   35.5332   21.1732 H         1 GTP         0.0670
     37 HO3'       12.8165   35.7279   23.0299 H         1 GTP         0.4494
     38 H2'        12.1431   35.1631   18.7630 H         1 GTP         0.0564
     39 HO2'       13.2830   36.9601   19.1092 H         1 GTP         0.4150
     40 H1'        14.8453   33.7628   20.3647 H         1 GTP         0.0898
     41 H8         11.8730   32.6240   17.9510 H         1 GTP         0.1015
     42 HN21       19.5568   32.1296   17.8977 H         1 GTP         0.3442
     43 HN22       18.8054   32.8843   19.4775 H         1 GTP         0.3442
@<TRIPOS>BOND
     1    1    2 2
     2    1    3 1
     3    1    4 1
     4    1    5 1
     5    5    6 1
     6    6    7 2
     7    6    8 1
     8    6    9 1
     9    9   10 1
    10   10   11 2
    11   10   12 1
    12   10   13 1
    13   13   14 1
    14   14   15 1
    15   14   33 1
    16   14   34 1
    17   15   16 1
    18   15   17 1
    19   15   35 1
    20   16   21 1
    21   17   18 1
    22   17   19 1
    23   17   36 1
    24   18   37 1
    25   19   20 1
    26   19   21 1
    27   19   38 1
    28   20   39 1
    29   21   22 1
    30   21   40 1
    31   22   23 ar
    32   22   32 ar
    33   23   24 ar
    34   23   41 1
    35   24   25 ar
    36   25   26 ar
    37   25   32 ar
    38   26   27 1
    39   26   28 ar
    40   28   29 ar
    41   29   30 1
    42   29   31 ar
    43   30   42 1
    44   30   43 1
    45   31   32 ar
@<TRIPOS>SUBSTRUCTURE
     1 GTP         1 GROUP   0 A     ****
@<TRIPOS>MOLECULE
[[[5-(2-amino-6-oxo-1~{H}-purin-9-yl)-3,4-dihydroxy-tetrahydrofuran-2-yl]methoxy-oxido-phosphoryl]oxy-oxido-phosphoryl] phosphate
   44    46     1     0     0
SMALL
USER_CHARGES

@<TRIPOS>ATOM
      1 PG          4.5660   31.3910   21.6350 P.3       1 GTP         1.3829
      2 O1G         4.6130   31.9070   23.0690 O.2       1 GTP        -0.9757
      3 O2G         3.8920   32.3190   20.6310 O.3       1 GTP        -0.9757
      4 O3G         4.1430   30.0120   21.6130 O.3       1 GTP        -0.9757
      5 O3B         6.1600   31.3600   21.2280 O.3       1 GTP        -0.7389
      6 PB          6.8770   31.2020   19.7450 P.3       1 GTP         1.5384
      7 O1B         7.0790   29.7090   19.4730 O.2       1 GTP        -0.8948
      8 O2B         6.1250   31.9700   18.7490 O.3       1 GTP        -0.8948
      9 O3A         8.2510   31.8900   20.0030 O.3       1 GTP        -0.7420
     10 PA          8.8460   33.2610   19.4110 P.3       1 GTP         1.5254
     11 O1A         8.8880   33.2560   17.9570 O.2       1 GTP        -0.8812
     12 O2A         8.1050   34.3980   20.1290 O.3       1 GTP        -0.8812
     13 O5'        10.4300   33.1530   19.9000 O.3       1 GTP        -0.5720
     14 C5'        10.5490   33.0440   21.3780 C.3       1 GTP         0.2195
     15 C4'        12.0460   33.6180   21.4740 C.3       1 GTP         0.0900
     16 O4'        13.0520   32.8300   20.8180 O.3       1 GTP        -0.3725
     17 C3'        12.3070   34.9690   21.0570 C.3       1 GTP         0.0729
     18 O3'        13.1090   35.6720   21.9710 O.3       1 GTP        -0.6361
     19 C2'        12.8390   34.9710   19.5930 C.3       1 GTP         0.1120
     20 O2'        13.6720   35.9610   19.3550 O.3       1 GTP        -0.6183
     21 C1'        13.8460   33.6220   19.9270 C.3       1 GTP         0.2260
     22 N9         14.0010   32.8330   18.6490 N.pl3     1 GTP        -0.1831
     23 C8         12.9340   32.4520   17.8480 C.ar      1 GTP         0.4536
     24 N7         13.6400   31.7980   16.8990 N.ar      1 GTP        -0.6249
     25 C5         15.0290   31.8890   17.0010 C.ar      1 GTP         0.1719
     26 C6         15.8990   31.3940   16.2380 C.ar      1 GTP         0.6550
     27 O6         15.9820   30.6800   15.1910 O.2       1 GTP        -0.6574
     28 N1         17.2740   31.6280   16.8000 N.am      1 GTP        -0.5174
     29 C2         17.3040   32.2950   17.8960 C.ar      1 GTP         0.6623
     30 N2         18.6770   32.4500   18.4750 N.pl3     1 GTP        -0.9844
     31 N3         16.3840   32.7360   18.7390 N.ar      1 GTP        -0.6218
     32 C4         15.2180   32.5170   18.1350 C.ar      1 GTP         0.0791
     33 H5'         9.7718   33.6593   21.8548 H         1 GTP         0.0419
     34 H5''       10.4216   31.9939   21.6797 H         1 GTP         0.0419
     35 H4'        12.2583   33.6282   22.5533 H         1 GTP         0.0780
     36 H3'        11.3699   35.5332   21.1732 H         1 GTP         0.0539
     37 HO3'       12.8165   35.7279   23.0299 H         1 GTP         0.4655
     38 H2'        12.1431   35.1631   18.7630 H         1 GTP         0.0380
     39 HO2'       13.2830   36.9601   19.1092 H         1 GTP         0.4323
     40 H1'        14.8453   33.7628   20.3647 H         1 GTP         0.0951
     41 H8         11.8730   32.6240   17.9510 H         1 GTP         0.1402
     42 HN1        18.1572   31.2365   16.2739 H         1 GTP         0.3032
     43 HN21       19.5568   32.1296   17.8977 H         1 GTP         0.4346
     44 HN22       18.8054   32.8843   19.4775 H         1 GTP         0.4346
@<TRIPOS>BOND
     1    1    2 2
     2    1    3 1
     3    1    4 1
     4    1    5 1
     5    5    6 1
     6    6    7 2
     7    6    8 1
     8    6    9 1
     9    9   10 1
    10   10   11 2
    11   10   12 1
    12   10   13 1
    13   13   14 1
    14   14   15 1
    15   14   33 1
    16   14   34 1
    17   15   16 1
    18   15   17 1
    19   15   35 1
    20   16   21 1
    21   17   18 1
    22   17   19 1
    23   17   36 1
    24   18   37 1
    25   19   20 1
    26   19   21 1
    27   19   38 1
    28   20   39 1
    29   21   22 1
    30   21   40 1
    31   22   23 ar
    32   22   32 ar
    33   23   24 ar
    34   23   41 1
    35   24   25 ar
    36   25   26 ar
    37   25   32 ar
    38   26   27 2
    39   26   28 ar
    40   28   29 ar
    41   28   42 1
    42   29   30 1
    43   29   31 ar
    44   30   43 1
    45   30   44 1
    46   31   32 ar
@<TRIPOS>SUBSTRUCTURE
     1 GTP         1 GROUP   0 A     ****
@<TRIPOS>MOLECULE
[[[5-(2-amino-6-oxido-purin-9-yl)-3-hydroxy-4-oxido-tetrahydrofuran-2-yl]methoxy-oxido-phosphoryl]oxy-oxido-phosphoryl] phosphate
   42    44     1     0     0
SMALL
USER_CHARGES

@<TRIPOS>ATOM
      1 PG          4.5660   31.3910   21.6350 P.3       1 GTP         1.4505
      2 O1G         4.6130   31.9070   23.0690 O.2       1 GTP        -0.9787
      3 O2G         3.8920   32.3190   20.6310 O.3       1 GTP        -0.9787
      4 O3G         4.1430   30.0120   21.6130 O.3       1 GTP        -0.9787
      5 O3B         6.1600   31.3600   21.2280 O.3       1 GTP        -0.8149
      6 PB          6.8770   31.2020   19.7450 P.3       1 GTP         1.6777
      7 O1B         7.0790   29.7090   19.4730 O.2       1 GTP        -0.9294
      8 O2B         6.1250   31.9700   18.7490 O.3       1 GTP        -0.9294
      9 O3A         8.2510   31.8900   20.0030 O.3       1 GTP        -0.7997
     10 PA          8.8460   33.2610   19.4110 P.3       1 GTP         1.5812
     11 O1A         8.8880   33.2560   17.9570 O.2       1 GTP        -0.9209
     12 O2A         8.1050   34.3980   20.1290 O.3       1 GTP        -0.9209
     13 O5'        10.4300   33.1530   19.9000 O.3       1 GTP        -0.5660
     14 C5'        10.5490   33.0440   21.3780 C.3       1 GTP         0.1896
     15 C4'        12.0460   33.6180   21.4740 C.3       1 GTP         0.1253
     16 O4'        13.0520   32.8300   20.8180 O.3       1 GTP        -0.4228
     17 C3'        12.3070   34.9690   21.0570 C.3       1 GTP         0.0277
     18 O3'        13.1090   35.6720   21.9710 O.3       1 GTP        -0.6746
     19 C2'        12.8390   34.9710   19.5930 C.3       1 GTP         0.3519
     20 O2'        13.6720   35.9610   19.3550 O.3       1 GTP        -0.9141
     21 C1'        13.8460   33.6220   19.9270 C.3       1 GTP         0.3525
     22 N9         14.0010   32.8330   18.6490 N.pl3     1 GTP        -0.6532
     23 C8         12.9340   32.4520   17.8480 C.ar      1 GTP         0.5177
     24 N7         13.6400   31.7980   16.8990 N.ar      1 GTP        -0.5909
     25 C5         15.0290   31.8890   17.0010 C.ar      1 GTP        -0.2703
     26 C6         15.8990   31.3940   16.2380 C.ar      1 GTP         0.9913
     27 O6         15.9820   30.6800   15.1910 O.3       1 GTP        -0.8706
     28 N1         17.2740   31.6280   16.8000 N.ar      1 GTP        -0.9750
     29 C2         17.3040   32.2950   17.8960 C.ar      1 GTP         0.7846
     30 N2         18.6770   32.4500   18.4750 N.pl3     1 GTP        -0.8948
     31 N3         16.3840   32.7360   18.7390 N.ar      1 GTP        -0.8061
     32 C4         15.2180   32.5170   18.1350 C.ar      1 GTP         0.5391
     33 H5'         9.7718   33.6593   21.8548 H         1 GTP         0.0084
     34 H5''       10.4216   31.9939   21.6797 H         1 GTP         0.0084
     35 H4'        12.2583   33.6282   22.5533 H         1 GTP         0.0455
     36 H3'        11.3699   35.5332   21.1732 H         1 GTP         0.0170
     37 HO3'       12.8165   35.7279   23.0299 H         1 GTP         0.4091
     38 H2'        12.1431   35.1631   18.7630 H         1 GTP        -0.0411
     39 H1'        14.8453   33.7628   20.3647 H         1 GTP         0.0464
     40 H8         11.8730   32.6240   17.9510 H         1 GTP         0.1603
     41 HN21       19.5568   32.1296   17.8977 H         1 GTP         0.3236
     42 HN22       18.8054   32.8843   19.4775 H         1 GTP         0.3236
@<TRIPOS>BOND
     1    1    2 2
     2    1    3 1
     3    1    4 1
     4    1    5 1
     5    5    6 1
     6    6    7 2
     7    6    8 1
     8    6    9 1
     9    9   10 1
    10   10   11 2
    11   10   12 1
    12   10   13 1
    13   13   14 1
    14   14   15 1
    15   14   33 1
    16   14   34 1
    17   15   16 1
    18   15   17 1
    19   15   35 1
    20   16   21 1
    21   17   18 1
    22   17   19 1
    23   17   36 1
    24   18   37 1
    25   19   20 1
    26   19   21 1
    27   19   38 1
    28   21   22 1
    29   21   39 1
    30   22   23 ar
    31   22   32 ar
    32   23   24 ar
    33   23   40 1
    34   24   25 ar
    35   25   26 ar
    36   25   32 ar
    37   26   27 1
    38   26   28 ar
    39   28   29 ar
    40   29   30 1
    41   29   31 ar
    42   30   41 1
    43   30   42 1
    44   31   32 ar
@<TRIPOS>SUBSTRUCTURE
     1 GTP         1 GROUP   0 A     ****
@<TRIPOS>MOLECULE
[[[5-(2-amino-6-oxido-purin-9-yl)-4-hydroxy-3-oxido-tetrahydrofuran-2-yl]methoxy-oxido-phosphoryl]oxy-oxido-phosphoryl] phosphate
   42    44     1     0     0
SMALL
USER_CHARGES

@<TRIPOS>ATOM
      1 PG          4.5660   31.3910   21.6350 P.3       1 GTP         1.4498
      2 O1G         4.6130   31.9070   23.0690 O.2       1 GTP        -0.9817
      3 O2G         3.8920   32.3190   20.6310 O.3       1 GTP        -0.9817
      4 O3G         4.1430   30.0120   21.6130 O.3       1 GTP        -0.9817
      5 O3B         6.1600   31.3600   21.2280 O.3       1 GTP        -0.8134
      6 PB          6.8770   31.2020   19.7450 P.3       1 GTP         1.6895
      7 O1B         7.0790   29.7090   19.4730 O.2       1 GTP        -0.9403
      8 O2B         6.1250   31.9700   18.7490 O.3       1 GTP        -0.9403
      9 O3A         8.2510   31.8900   20.0030 O.3       1 GTP        -0.8126
     10 PA          8.8460   33.2610   19.4110 P.3       1 GTP         1.5920
     11 O1A         8.8880   33.2560   17.9570 O.2       1 GTP        -0.9227
     12 O2A         8.1050   34.3980   20.1290 O.3       1 GTP        -0.9227
     13 O5'        10.4300   33.1530   19.9000 O.3       1 GTP        -0.5697
     14 C5'        10.5490   33.0440   21.3780 C.3       1 GTP         0.2097
     15 C4'        12.0460   33.6180   21.4740 C.3       1 GTP         0.0606
     16 O4'        13.0520   32.8300   20.8180 O.3       1 GTP        -0.4487
     17 C3'        12.3070   34.9690   21.0570 C.3       1 GTP         0.3742
     18 O3'        13.1090   35.6720   21.9710 O.3       1 GTP        -0.8772
     19 C2'        12.8390   34.9710   19.5930 C.3       1 GTP        -0.0035
     20 O2'        13.6720   35.9610   19.3550 O.3       1 GTP        -0.6770
     21 C1'        13.8460   33.6220   19.9270 C.3       1 GTP         0.4273
     22 N9         14.0010   32.8330   18.6490 N.pl3     1 GTP        -0.6578
     23 C8         12.9340   32.4520   17.8480 C.ar      1 GTP         0.4950
     24 N7         13.6400   31.7980   16.8990 N.ar      1 GTP        -0.5913
     25 C5         15.0290   31.8890   17.0010 C.ar      1 GTP        -0.2784
     26 C6         15.8990   31.3940   16.2380 C.ar      1 GTP         0.9975
     27 O6         15.9820   30.6800   15.1910 O.3       1 GTP        -0.8572
     28 N1         17.2740   31.6280   16.8000 N.ar      1 GTP        -0.9678
     29 C2         17.3040   32.2950   17.8960 C.ar      1 GTP         0.8081
     30 N2         18.6770   32.4500   18.4750 N.pl3     1 GTP        -0.8994
     31 N3         16.3840   32.7360   18.7390 N.ar      1 GTP        -0.8232
     32 C4         15.2180   32.5170   18.1350 C.ar      1 GTP         0.5533
     33 H5'         9.7718   33.6593   21.8548 H         1 GTP         0.0169
     34 H5''       10.4216   31.9939   21.6797 H         1 GTP         0.0169
     35 H4'        12.2583   33.6282   22.5533 H         1 GTP         0.0436
     36 H3'        11.3699   35.5332   21.1732 H         1 GTP        -0.0425
     37 H2'        12.1431   35.1631   18.7630 H         1 GTP         0.0146
     38 HO2'       13.2830   36.9601   19.1092 H         1 GTP         0.4290
     39 H1'        14.8453   33.7628   20.3647 H         1 GTP         0.0490
     40 H8         11.8730   32.6240   17.9510 H         1 GTP         0.0968
     41 HN21       19.5568   32.1296   17.8977 H         1 GTP         0.3335
     42 HN22       18.8054   32.8843   19.4775 H         1 GTP         0.3335
@<TRIPOS>BOND
     1    1    2 2
     2    1    3 1
     3    1    4 1
     4    1    5 1
     5    5    6 1
     6    6    7 2
     7    6    8 1
     8    6    9 1
     9    9   10 1
    10   10   11 2
    11   10   12 1
    12   10   13 1
    13   13   14 1
    14   14   15 1
    15   14   33 1
    16   14   34 1
    17   15   16 1
    18   15   17 1
    19   15   35 1
    20   16   21 1
    21   17   18 1
    22   17   19 1
    23   17   36 1
    24   19   20 1
    25   19   21 1
    26   19   37 1
    27   20   38 1
    28   21   22 1
    29   21   39 1
    30   22   23 ar
    31   22   32 ar
    32   23   24 ar
    33   23   40 1
    34   24   25 ar
    35   25   26 ar
    36   25   32 ar
    37   26   27 1
    38   26   28 ar
    39   28   29 ar
    40   29   30 1
    41   29   31 ar
    42   30   41 1
    43   30   42 1
    44   31   32 ar
@<TRIPOS>SUBSTRUCTURE
     1 GTP         1 GROUP   0 A     ****
@<TRIPOS>MOLECULE
[[[5-(2-amino-6-oxo-1~{H}-purin-9-yl)-3-hydroxy-4-oxido-tetrahydrofuran-2-yl]methoxy-oxido-phosphoryl]oxy-oxido-phosphoryl] phosphate
   43    45     1     0     0
SMALL
USER_CHARGES

@<TRIPOS>ATOM
      1 PG          4.5660   31.3910   21.6350 P.3       1 GTP         1.4432
      2 O1G         4.6130   31.9070   23.0690 O.2       1 GTP        -0.9720
      3 O2G         3.8920   32.3190   20.6310 O.3       1 GTP        -0.9720
      4 O3G         4.1430   30.0120   21.6130 O.3       1 GTP        -0.9720
      5 O3B         6.1600   31.3600   21.2280 O.3       1 GTP        -0.8119
      6 PB          6.8770   31.2020   19.7450 P.3       1 GTP         1.6739
      7 O1B         7.0790   29.7090   19.4730 O.2       1 GTP        -0.9268
      8 O2B         6.1250   31.9700   18.7490 O.3       1 GTP        -0.9268
      9 O3A         8.2510   31.8900   20.0030 O.3       1 GTP        -0.7954
     10 PA          8.8460   33.2610   19.4110 P.3       1 GTP         1.5820
     11 O1A         8.8880   33.2560   17.9570 O.2       1 GTP        -0.9240
     12 O2A         8.1050   34.3980   20.1290 O.3       1 GTP        -0.9240
     13 O5'        10.4300   33.1530   19.9000 O.3       1 GTP        -0.5573
     14 C5'        10.5490   33.0440   21.3780 C.3       1 GTP         0.2287
     15 C4'        12.0460   33.6180   21.4740 C.3       1 GTP         0.1061
     16 O4'        13.0520   32.8300   20.8180 O.3       1 GTP        -0.4237
     17 C3'        12.3070   34.9690   21.0570 C.3       1 GTP         0.0467
     18 O3'        13.1090   35.6720   21.9710 O.3       1 GTP        -0.6449
     19 C2'        12.8390   34.9710   19.5930 C.3       1 GTP         0.3599
     20 O2'        13.6720   35.9610   19.3550 O.3       1 GTP        -0.8888
     21 C1'        13.8460   33.6220   19.9270 C.3       1 GTP         0.1198
     22 N9         14.0010   32.8330   18.6490 N.pl3     1 GTP        -0.0856
     23 C8         12.9340   32.4520   17.8480 C.ar      1 GTP         0.4520
     24 N7         13.6400   31.7980   16.8990 N.ar      1 GTP        -0.6629
     25 C5         15.0290   31.8890   17.0010 C.ar      1 GTP         0.1842
     26 C6         15.8990   31.3940   16.2380 C.ar      1 GTP         0.6483
     27 O6         15.9820   30.6800   15.1910 O.2       1 GTP        -0.7000
     28 N1         17.2740   31.6280   16.8000 N.am      1 GTP        -0.5084
     29 C2         17.3040   32.2950   17.8960 C.ar      1 GTP         0.5463
     30 N2         18.6770   32.4500   18.4750 N.pl3     1 GTP        -0.8698
     31 N3         16.3840   32.7360   18.7390 N.ar      1 GTP        -0.5650
     32 C4         15.2180   32.5170   18.1350 C.ar      1 GTP         0.0372
     33 H5'         9.7718   33.6593   21.8548 H         1 GTP        -0.0048
     34 H5''       10.4216   31.9939   21.6797 H         1 GTP        -0.0048
     35 H4'        12.2583   33.6282   22.5533 H         1 GTP         0.0962
     36 H3'        11.3699   35.5332   21.1732 H         1 GTP         0.0602
     37 HO3'       12.8165   35.7279   23.0299 H         1 GTP         0.4003
     38 H2'        12.1431   35.1631   18.7630 H         1 GTP        -0.0477
     39 H1'        14.8453   33.7628   20.3647 H         1 GTP         0.0571
     40 H8         11.8730   32.6240   17.9510 H         1 GTP         0.1098
     41 HN1        18.1572   31.2365   16.2739 H         1 GTP         0.2988
     42 HN21       19.5568   32.1296   17.8977 H         1 GTP         0.3690
     43 HN22       18.8054   32.8843   19.4775 H         1 GTP         0.3690
@<TRIPOS>BOND
     1    1    2 2
     2    1    3 1
     3    1    4 1
     4    1    5 1
     5    5    6 1
     6    6    7 2
     7    6    8 1
     8    6    9 1
     9    9   10 1
    10   10   11 2
    11   10   12 1
    12   10   13 1
    13   13   14 1
    14   14   15 1
    15   14   33 1
    16   14   34 1
    17   15   16 1
    18   15   17 1
    19   15   35 1
    20   16   21 1
    21   17   18 1
    22   17   19 1
    23   17   36 1
    24   18   37 1
    25   19   20 1
    26   19   21 1
    27   19   38 1
    28   21   22 1
    29   21   39 1
    30   22   23 ar
    31   22   32 ar
    32   23   24 ar
    33   23   40 1
    34   24   25 ar
    35   25   26 ar
    36   25   32 ar
    37   26   27 2
    38   26   28 ar
    39   28   29 ar
    40   28   41 1
    41   29   30 1
    42   29   31 ar
    43   30   42 1
    44   30   43 1
    45   31   32 ar
@<TRIPOS>SUBSTRUCTURE
     1 GTP         1 GROUP   0 A     ****
