@<TRIPOS>MOLECULE
6-(hydroxymethyl)tetrahydropyran-2,3,4,5-tetrol
   24    24     1     0     0
SMALL
USER_CHARGES

@<TRIPOS>ATOM
      1 C1          8.5370   13.1410   37.4360 C.3       1 GLC         0.3030
      2 C2          8.6570   12.6250   38.8660 C.3       1 GLC         0.0939
      3 C3          8.9460   13.7530   39.8190 C.3       1 GLC         0.1070
      4 C4         10.1450   14.5230   39.3600 C.3       1 GLC         0.1215
      5 C5          9.8470   15.1610   37.9650 C.3       1 GLC         0.1391
      6 C6         11.1090   15.8230   37.3730 C.3       1 GLC         0.1359
      7 O1          7.3430   13.7470   37.2600 O.3       1 GLC        -0.6198
      8 O2          7.4300   12.0310   39.2450 O.3       1 GLC        -0.5928
      9 O3          9.2530   13.1490   41.0940 O.3       1 GLC        -0.6098
     10 O4         10.3170   15.6750   40.2450 O.3       1 GLC        -0.5977
     11 O5          9.3520   14.1830   37.0850 O.3       1 GLC        -0.4323
     12 O6         10.5830   16.5420   36.2380 O.3       1 GLC        -0.5953
     13 H1          8.7307   12.2945   36.7608 H         1 GLC         0.0710
     14 H2          9.4361   11.8518   38.9382 H         1 GLC         0.0641
     15 H3          8.0864   14.4325   39.9158 H         1 GLC         0.0779
     16 H4         11.0162   13.8523   39.3935 H         1 GLC         0.0583
     17 H5          9.0288   15.8939   38.0242 H         1 GLC         0.0822
     18 H61        11.5624   16.4857   38.1248 H         1 GLC         0.0458
     19 H62        11.8316   15.0445   37.0871 H         1 GLC         0.0458
     20 HO1         6.4119   13.1946   37.4545 H         1 GLC         0.4290
     21 HO2         7.0314   11.1797   38.6737 H         1 GLC         0.4175
     22 HO3         8.4985   12.5351   41.6077 H         1 GLC         0.4279
     23 HO4        10.5410   15.5211   41.3109 H         1 GLC         0.4251
     24 HO6        11.2580   17.1290   35.5979 H         1 GLC         0.4029
@<TRIPOS>BOND
     1    1    2 1
     2    1    7 1
     3    1   11 1
     4    1   13 1
     5    2    3 1
     6    2    8 1
     7    2   14 1
     8    3    4 1
     9    3    9 1
    10    3   15 1
    11    4    5 1
    12    4   10 1
    13    4   16 1
    14    5    6 1
    15    5   11 1
    16    5   17 1
    17    6   12 1
    18    6   18 1
    19    6   19 1
    20    7   20 1
    21    8   21 1
    22    9   22 1
    23   10   23 1
    24   12   24 1
@<TRIPOS>SUBSTRUCTURE
     1 GLC         1 GROUP   0 A     ****
@<TRIPOS>MOLECULE
2,4,5-trihydroxy-6-(hydroxymethyl)tetrahydropyran-3-olate
   23    23     1     0     0
SMALL
USER_CHARGES

@<TRIPOS>ATOM
      1 C1          8.5370   13.1410   37.4360 C.3       1 GLC         0.2440
      2 C2          8.6570   12.6250   38.8660 C.3       1 GLC         0.4005
      3 C3          8.9460   13.7530   39.8190 C.3       1 GLC         0.0285
      4 C4         10.1450   14.5230   39.3600 C.3       1 GLC         0.1129
      5 C5          9.8470   15.1610   37.9650 C.3       1 GLC         0.1608
      6 C6         11.1090   15.8230   37.3730 C.3       1 GLC         0.1405
      7 O1          7.3430   13.7470   37.2600 O.3       1 GLC        -0.5979
      8 O2          7.4300   12.0310   39.2450 O.3       1 GLC        -0.8469
      9 O3          9.2530   13.1490   41.0940 O.3       1 GLC        -0.6567
     10 O4         10.3170   15.6750   40.2450 O.3       1 GLC        -0.6407
     11 O5          9.3520   14.1830   37.0850 O.3       1 GLC        -0.4747
     12 O6         10.5830   16.5420   36.2380 O.3       1 GLC        -0.6077
     13 H1          8.7307   12.2945   36.7608 H         1 GLC         0.0445
     14 H2          9.4361   11.8518   38.9382 H         1 GLC        -0.0856
     15 H3          8.0864   14.4325   39.9158 H         1 GLC         0.0419
     16 H4         11.0162   13.8523   39.3935 H         1 GLC         0.0375
     17 H5          9.0288   15.8939   38.0242 H         1 GLC         0.0554
     18 H61        11.5624   16.4857   38.1248 H         1 GLC         0.0255
     19 H62        11.8316   15.0445   37.0871 H         1 GLC         0.0255
     20 HO1         6.4119   13.1946   37.4545 H         1 GLC         0.3693
     21 HO3         8.4985   12.5351   41.6077 H         1 GLC         0.4308
     22 HO4        10.5410   15.5211   41.3109 H         1 GLC         0.4133
     23 HO6        11.2580   17.1290   35.5979 H         1 GLC         0.3794
@<TRIPOS>BOND
     1    1    2 1
     2    1    7 1
     3    1   11 1
     4    1   13 1
     5    2    3 1
     6    2    8 1
     7    2   14 1
     8    3    4 1
     9    3    9 1
    10    3   15 1
    11    4    5 1
    12    4   10 1
    13    4   16 1
    14    5    6 1
    15    5   11 1
    16    5   17 1
    17    6   12 1
    18    6   18 1
    19    6   19 1
    20    7   20 1
    21    9   21 1
    22   10   22 1
    23   12   23 1
@<TRIPOS>SUBSTRUCTURE
     1 GLC         1 GROUP   0 A     ****
@<TRIPOS>MOLECULE
3,4,5-trihydroxy-6-(hydroxymethyl)tetrahydropyran-2-olate
   23    23     1     0     0
SMALL
USER_CHARGES

@<TRIPOS>ATOM
      1 C1          8.5370   13.1410   37.4360 C.3       1 GLC         0.5419
      2 C2          8.6570   12.6250   38.8660 C.3       1 GLC         0.0122
      3 C3          8.9460   13.7530   39.8190 C.3       1 GLC         0.0940
      4 C4         10.1450   14.5230   39.3600 C.3       1 GLC         0.1145
      5 C5          9.8470   15.1610   37.9650 C.3       1 GLC         0.1707
      6 C6         11.1090   15.8230   37.3730 C.3       1 GLC         0.1289
      7 O1          7.3430   13.7470   37.2600 O.3       1 GLC        -0.8478
      8 O2          7.4300   12.0310   39.2450 O.3       1 GLC        -0.6437
      9 O3          9.2530   13.1490   41.0940 O.3       1 GLC        -0.6515
     10 O4         10.3170   15.6750   40.2450 O.3       1 GLC        -0.6232
     11 O5          9.3520   14.1830   37.0850 O.3       1 GLC        -0.5221
     12 O6         10.5830   16.5420   36.2380 O.3       1 GLC        -0.5898
     13 H1          8.7307   12.2945   36.7608 H         1 GLC        -0.0357
     14 H2          9.4361   11.8518   38.9382 H         1 GLC         0.0309
     15 H3          8.0864   14.4325   39.9158 H         1 GLC         0.0633
     16 H4         11.0162   13.8523   39.3935 H         1 GLC         0.0281
     17 H5          9.0288   15.8939   38.0242 H         1 GLC         0.0785
     18 H61        11.5624   16.4857   38.1248 H         1 GLC         0.0209
     19 H62        11.8316   15.0445   37.0871 H         1 GLC         0.0209
     20 HO2         7.0314   11.1797   38.6737 H         1 GLC         0.4229
     21 HO3         8.4985   12.5351   41.6077 H         1 GLC         0.4108
     22 HO4        10.5410   15.5211   41.3109 H         1 GLC         0.4019
     23 HO6        11.2580   17.1290   35.5979 H         1 GLC         0.3733
@<TRIPOS>BOND
     1    1    2 1
     2    1    7 1
     3    1   11 1
     4    1   13 1
     5    2    3 1
     6    2    8 1
     7    2   14 1
     8    3    4 1
     9    3    9 1
    10    3   15 1
    11    4    5 1
    12    4   10 1
    13    4   16 1
    14    5    6 1
    15    5   11 1
    16    5   17 1
    17    6   12 1
    18    6   18 1
    19    6   19 1
    20    8   20 1
    21    9   21 1
    22   10   22 1
    23   12   23 1
@<TRIPOS>SUBSTRUCTURE
     1 GLC         1 GROUP   0 A     ****
@<TRIPOS>MOLECULE
4,5,6-trihydroxy-2-(hydroxymethyl)tetrahydropyran-3-olate
   23    23     1     0     0
SMALL
USER_CHARGES

@<TRIPOS>ATOM
      1 C1          8.5370   13.1410   37.4360 C.3       1 GLC         0.3438
      2 C2          8.6570   12.6250   38.8660 C.3       1 GLC         0.1311
      3 C3          8.9460   13.7530   39.8190 C.3       1 GLC         0.0280
      4 C4         10.1450   14.5230   39.3600 C.3       1 GLC         0.3749
      5 C5          9.8470   15.1610   37.9650 C.3       1 GLC         0.0682
      6 C6         11.1090   15.8230   37.3730 C.3       1 GLC         0.1386
      7 O1          7.3430   13.7470   37.2600 O.3       1 GLC        -0.6327
      8 O2          7.4300   12.0310   39.2450 O.3       1 GLC        -0.6175
      9 O3          9.2530   13.1490   41.0940 O.3       1 GLC        -0.6527
     10 O4         10.3170   15.6750   40.2450 O.3       1 GLC        -0.8721
     11 O5          9.3520   14.1830   37.0850 O.3       1 GLC        -0.4653
     12 O6         10.5830   16.5420   36.2380 O.3       1 GLC        -0.6150
     13 H1          8.7307   12.2945   36.7608 H         1 GLC         0.0371
     14 H2          9.4361   11.8518   38.9382 H         1 GLC         0.0422
     15 H3          8.0864   14.4325   39.9158 H         1 GLC         0.0384
     16 H4         11.0162   13.8523   39.3935 H         1 GLC        -0.0807
     17 H5          9.0288   15.8939   38.0242 H         1 GLC         0.0410
     18 H61        11.5624   16.4857   38.1248 H         1 GLC         0.0362
     19 H62        11.8316   15.0445   37.0871 H         1 GLC         0.0362
     20 HO1         6.4119   13.1946   37.4545 H         1 GLC         0.4035
     21 HO2         7.0314   11.1797   38.6737 H         1 GLC         0.4129
     22 HO3         8.4985   12.5351   41.6077 H         1 GLC         0.4336
     23 HO6        11.2580   17.1290   35.5979 H         1 GLC         0.3704
@<TRIPOS>BOND
     1    1    2 1
     2    1    7 1
     3    1   11 1
     4    1   13 1
     5    2    3 1
     6    2    8 1
     7    2   14 1
     8    3    4 1
     9    3    9 1
    10    3   15 1
    11    4    5 1
    12    4   10 1
    13    4   16 1
    14    5    6 1
    15    5   11 1
    16    5   17 1
    17    6   12 1
    18    6   18 1
    19    6   19 1
    20    7   20 1
    21    8   21 1
    22    9   22 1
    23   12   23 1
@<TRIPOS>SUBSTRUCTURE
     1 GLC         1 GROUP   0 A     ****
@<TRIPOS>MOLECULE
2,3,5-trihydroxy-6-(hydroxymethyl)tetrahydropyran-4-olate
   23    23     1     0     0
SMALL
USER_CHARGES

@<TRIPOS>ATOM
      1 C1          8.5370   13.1410   37.4360 C.3       1 GLC         0.3371
      2 C2          8.6570   12.6250   38.8660 C.3       1 GLC         0.0634
      3 C3          8.9460   13.7530   39.8190 C.3       1 GLC         0.3542
      4 C4         10.1450   14.5230   39.3600 C.3       1 GLC         0.0448
      5 C5          9.8470   15.1610   37.9650 C.3       1 GLC         0.1402
      6 C6         11.1090   15.8230   37.3730 C.3       1 GLC         0.1273
      7 O1          7.3430   13.7470   37.2600 O.3       1 GLC        -0.6131
      8 O2          7.4300   12.0310   39.2450 O.3       1 GLC        -0.6239
      9 O3          9.2530   13.1490   41.0940 O.3       1 GLC        -0.8785
     10 O4         10.3170   15.6750   40.2450 O.3       1 GLC        -0.6443
     11 O5          9.3520   14.1830   37.0850 O.3       1 GLC        -0.4718
     12 O6         10.5830   16.5420   36.2380 O.3       1 GLC        -0.6065
     13 H1          8.7307   12.2945   36.7608 H         1 GLC         0.0300
     14 H2          9.4361   11.8518   38.9382 H         1 GLC         0.0237
     15 H3          8.0864   14.4325   39.9158 H         1 GLC        -0.0600
     16 H4         11.0162   13.8523   39.3935 H         1 GLC         0.0240
     17 H5          9.0288   15.8939   38.0242 H         1 GLC         0.0585
     18 H61        11.5624   16.4857   38.1248 H         1 GLC         0.0348
     19 H62        11.8316   15.0445   37.0871 H         1 GLC         0.0348
     20 HO1         6.4119   13.1946   37.4545 H         1 GLC         0.3906
     21 HO2         7.0314   11.1797   38.6737 H         1 GLC         0.4269
     22 HO4        10.5410   15.5211   41.3109 H         1 GLC         0.4291
     23 HO6        11.2580   17.1290   35.5979 H         1 GLC         0.3789
@<TRIPOS>BOND
     1    1    2 1
     2    1    7 1
     3    1   11 1
     4    1   13 1
     5    2    3 1
     6    2    8 1
     7    2   14 1
     8    3    4 1
     9    3    9 1
    10    3   15 1
    11    4    5 1
    12    4   10 1
    13    4   16 1
    14    5    6 1
    15    5   11 1
    16    5   17 1
    17    6   12 1
    18    6   18 1
    19    6   19 1
    20    7   20 1
    21    8   21 1
    22   10   22 1
    23   12   23 1
@<TRIPOS>SUBSTRUCTURE
     1 GLC         1 GROUP   0 A     ****
