@<TRIPOS>MOLECULE
CIT
18   17    1
SMALL
USER_CHARGES


@<TRIPOS>ATOM
      1 C1         68.4180   48.3850   33.0230 C.2       1 CIT         0.0000 
      2 O1         68.8200   47.5710   32.3980 O.co2     1 CIT         0.0000 
      3 O2         68.6370   49.5560   32.9780 O.co2     1 CIT         0.0000 
      4 C2         67.4830   48.0690   34.2230 C.3       1 CIT         0.0000 
      5 C3         65.9350   48.1150   34.0490 C.3       1 CIT         0.0000 
      6 O7         65.4890   49.4220   33.5830 O.3       1 CIT         0.0000 
      7 C4         65.5390   47.1450   32.9120 C.3       1 CIT         0.0000 
      8 C5         64.0420   46.9920   32.7920 C.2       1 CIT         0.0000 
      9 O3         63.6500   46.2810   31.7410 O.co2     1 CIT         0.0000 
     10 O4         63.2220   47.3690   33.5850 O.co2     1 CIT         0.0000 
     11 C6         65.2600   47.7760   35.3540 C.2       1 CIT         0.0000 
     12 O5         65.3250   46.5580   35.7260 O.co2     1 CIT         0.0000 
     13 O6         64.7220   48.7180   36.0170 O.co2     1 CIT         0.0000 
     14 H21        67.6764   47.0464   34.5791 H         1 CIT         0.0000 
     15 H22        67.6766   48.7834   35.0367 H         1 CIT         0.0000 
     16 HO7        65.8803   49.8328   32.6406 H         1 CIT         0.0000 
     17 H41        65.9223   47.5268   31.9542 H         1 CIT         0.0000 
     18 H42        65.9701   46.1525   33.1099 H         1 CIT         0.0000 
@<TRIPOS>BOND
     1    1    2 2    
     2    1    3 1    
     3    1    4 1    
     4    4    5 1    
     5    4   14 1    
     6    4   15 1    
     7    5    6 1    
     8    5    7 1    
     9    5   11 1    
    10    6   16 1    
    11    7    8 1    
    12    7   17 1    
    13    7   18 1    
    14    8    9 2    
    15    8   10 1    
    16   11   12 2    
    17   11   13 1    
@<TRIPOS>SUBSTRUCTURE
     1 CIT         1 GROUP             0       ****    0 ROOT    
