@<TRIPOS>MOLECULE
2-amino-3-hydroxysulfanyl-propanoate
   14    13     1     0     0
SMALL
USER_CHARGES

@<TRIPOS>ATOM
      1 N          23.0260    5.5960   17.6840 N.3       1 CSO        -0.9188
      2 CA         23.8660    4.5550   18.2520 C.3       1 CSO         0.0436
      3 CB         23.4910    3.1810   17.6770 C.3       1 CSO        -0.0484
      4 SG         22.1030    2.4410   18.5580 S.3       1 CSO        -0.0873
      5 C          25.3470    4.7800   17.9930 C.2       1 CSO         0.9130
      6 O          26.1810    4.4560   18.8370 O.co2     1 CSO        -0.8290
      7 OXT        25.6600    5.3210   16.8140 O.co2     1 CSO        -0.8290
      8 OD         22.5640    2.0730   20.2510 O.3       1 CSO        -0.5351
      9 H          23.1478    5.6097   16.5909 H         1 CSO         0.3454
     10 HN2        21.9737    5.3947   17.9332 H         1 CSO         0.3454
     11 HA         23.6615    4.6380   19.3296 H         1 CSO         0.0500
     12 HB2        23.2091    3.2907   16.6194 H         1 CSO         0.0772
     13 HB3        24.3525    2.5019   17.7583 H         1 CSO         0.0772
     14 HD         21.8323    1.6156   20.9332 H         1 CSO         0.3958
@<TRIPOS>BOND
     1    1    2 1
     2    1    9 1
     3    1   10 1
     4    2    3 1
     5    2    5 1
     6    2   11 1
     7    3    4 1
     8    3   12 1
     9    3   13 1
    10    4    8 1
    11    5    6 2
    12    5    7 1
    13    8   14 1
@<TRIPOS>SUBSTRUCTURE
     1 CSO         1 GROUP   0 A     ****
@<TRIPOS>MOLECULE
2-azaniumyl-3-hydroxysulfanyl-propanoate
   15    14     1     0     0
SMALL
USER_CHARGES

@<TRIPOS>ATOM
      1 N          23.0260    5.5960   17.6840 N.4       1 CSO        -0.8302
      2 CA         23.8660    4.5550   18.2520 C.3       1 CSO        -0.0593
      3 CB         23.4910    3.1810   17.6770 C.3       1 CSO        -0.0867
      4 SG         22.1030    2.4410   18.5580 S.3       1 CSO         0.0787
      5 C          25.3470    4.7800   17.9930 C.2       1 CSO         0.9406
      6 O          26.1810    4.4560   18.8370 O.co2     1 CSO        -0.7465
      7 OXT        25.6600    5.3210   16.8140 O.co2     1 CSO        -0.7465
      8 OD         22.5640    2.0730   20.2510 O.3       1 CSO        -0.5299
      9 H          21.9709    5.3768   17.9046 H         1 CSO         0.4438
     10 HN2        23.1730    5.6320   16.5945 H         1 CSO         0.4438
     11 HA         23.6615    4.6380   19.3296 H         1 CSO         0.0971
     12 HB2        23.2091    3.2907   16.6194 H         1 CSO         0.0652
     13 HB3        24.3525    2.5019   17.7583 H         1 CSO         0.0652
     14 HD         21.8323    1.6156   20.9332 H         1 CSO         0.4209
     15 H15        23.2983    6.5671   18.1231 H         1 CSO         0.4438
@<TRIPOS>BOND
     1    1    2 1
     2    1    9 1
     3    1   10 1
     4    1   15 1
     5    2    3 1
     6    2    5 1
     7    2   11 1
     8    3    4 1
     9    3   12 1
    10    3   13 1
    11    4    8 1
    12    5    6 2
    13    5    7 1
    14    8   14 1
@<TRIPOS>SUBSTRUCTURE
     1 CSO         1 GROUP   0 A     ****
@<TRIPOS>MOLECULE
2-amino-3-hydroxysulfanyl-propanoic acid
   15    14     1     0     0
SMALL
USER_CHARGES

@<TRIPOS>ATOM
      1 N          23.0260    5.5960   17.6840 N.3       1 CSO        -0.9032
      2 CA         23.8660    4.5550   18.2520 C.3       1 CSO         0.1577
      3 CB         23.4910    3.1810   17.6770 C.3       1 CSO        -0.1103
      4 SG         22.1030    2.4410   18.5580 S.3       1 CSO        -0.0227
      5 C          25.3470    4.7800   17.9930 C.2       1 CSO         0.6303
      6 O          26.1810    4.4560   18.8370 O.2       1 CSO        -0.5177
      7 OXT        25.6600    5.3210   16.8140 O.3       1 CSO        -0.6145
      8 OD         22.5640    2.0730   20.2510 O.3       1 CSO        -0.4961
      9 H          23.1478    5.6097   16.5909 H         1 CSO         0.3711
     10 HN2        21.9737    5.3947   17.9332 H         1 CSO         0.3711
     11 HA         23.6615    4.6380   19.3296 H         1 CSO         0.1017
     12 HB2        23.2091    3.2907   16.6194 H         1 CSO         0.0872
     13 HB3        24.3525    2.5019   17.7583 H         1 CSO         0.0872
     14 HXT        24.8644    5.5884   16.1030 H         1 CSO         0.4472
     15 HD         21.8323    1.6156   20.9332 H         1 CSO         0.4110
@<TRIPOS>BOND
     1    1    2 1
     2    1    9 1
     3    1   10 1
     4    2    3 1
     5    2    5 1
     6    2   11 1
     7    3    4 1
     8    3   12 1
     9    3   13 1
    10    4    8 1
    11    5    6 2
    12    5    7 1
    13    7   14 1
    14    8   15 1
@<TRIPOS>SUBSTRUCTURE
     1 CSO         1 GROUP   0 A     ****
