CSO
  CCTOOLS-0326171052

 15 14  0  0  1  0  0  0  0  0999 V2000
   23.0260    5.5960   17.6840 N   0  0  0  0  0
   23.8660    4.5550   18.2520 C   0  0  0  0  0
   23.4910    3.1810   17.6770 C   0  0  0  0  0
   22.1030    2.4410   18.5580 S   0  0  0  0  0
   25.3470    4.7800   17.9930 C   0  0  0  0  0
   26.1810    4.4560   18.8370 O   0  0  0  0  0
   25.6600    5.3210   16.8140 O   0  0  0  0  0
   22.5640    2.0730   20.2510 O   0  0  0  0  0
   22.8330    6.2870   18.3810 H   0  0  0  0  0
   23.5000    6.0230   16.9140 H   0  0  0  0  0
   23.6900    4.5900   19.3370 H   0  0  0  0  0
   23.2120    3.3050   16.6200 H   0  0  0  0  0
   24.3600    2.5150   17.7860 H   0  0  0  0  0
   26.6040    5.4080   16.7450 H   0  0  0  0  0
   23.5100    2.0080   20.3150 H   0  0  0  0  0
  1  2  1  0  0  0
  1  9  1  0  0  0
  1 10  1  0  0  0
  2  3  1  0  0  0
  2  5  1  0  0  0
  2 11  1  0  0  0
  3  4  1  0  0  0
  3 12  1  0  0  0
  3 13  1  0  0  0
  4  8  1  0  0  0
  5  6  2  0  0  0
  5  7  1  0  0  0
  7 14  1  0  0  0
  8 15  1  0  0  0
M  END
$$$$
