@<TRIPOS>MOLECULE
2-azaniumyl-5-[[2-(carboxylatomethylamino)-2-oxo-1-(sulfanylmethyl)ethyl]amino]-5-oxo-pentanoate
   36    35     1     0     0
SMALL
USER_CHARGES

@<TRIPOS>ATOM
      1 N1         29.4280   55.6180   21.0350 N.4       1 GSH        -0.8227
      2 CA1        30.8570   55.3600   20.8190 C.3       1 GSH        -0.0667
      3 C1         31.1720   53.8470   20.7060 C.2       1 GSH         0.9214
      4 O11        32.1690   53.4940   20.0680 O.co2     1 GSH        -0.7627
      5 O12        30.3380   53.0180   21.3090 O.co2     1 GSH        -0.7627
      6 CB1        31.6820   56.0170   21.9480 C.3       1 GSH        -0.0766
      7 CG1        33.1680   56.2360   21.5350 C.3       1 GSH        -0.1542
      8 CD1        33.9430   56.7830   22.7670 C.2       1 GSH         0.6596
      9 OE1        33.3750   57.4490   23.6470 O.2       1 GSH        -0.6149
     10 N2         35.2490   56.4840   22.7930 N.am      1 GSH        -0.5245
     11 CA2        36.1160   57.1670   23.7590 C.3       1 GSH         0.0193
     12 C2         37.3460   57.7140   23.0170 C.2       1 GSH         0.6269
     13 O2         38.4710   57.7550   23.5310 O.2       1 GSH        -0.6561
     14 CB2        36.6120   56.1590   24.8260 C.3       1 GSH         0.0041
     15 SG2        35.2670   55.4640   25.8370 S.3       1 GSH        -0.3805
     16 N3         37.1200   58.1640   21.7610 N.am      1 GSH        -0.5248
     17 CA3        38.1830   58.6980   20.8980 C.3       1 GSH        -0.0407
     18 C3         37.9070   60.1660   20.6210 C.2       1 GSH         0.9040
     19 O31        38.5800   60.6930   19.7190 O.co2     1 GSH        -0.8322
     20 O32        37.0370   60.7560   21.3120 O.co2     1 GSH        -0.8322
     21 HN11       28.8448   55.1486   20.2291 H         1 GSH         0.4406
     22 HN12       29.2471   56.7030   21.0344 H         1 GSH         0.4406
     23 HA1        31.0841   55.8300   19.8507 H         1 GSH         0.0913
     24 HB12       31.2475   56.9963   22.1974 H         1 GSH         0.0702
     25 HB13       31.6651   55.3709   22.8381 H         1 GSH         0.0702
     26 HG12       33.6032   55.2793   21.2106 H         1 GSH         0.0814
     27 HG13       33.2159   56.9598   20.7080 H         1 GSH         0.0814
     28 HN2        35.6733   55.7388   22.1040 H         1 GSH         0.3083
     29 HA2        35.5132   57.9697   24.2088 H         1 GSH         0.0966
     30 HB22       37.1213   55.3201   24.3291 H         1 GSH         0.0949
     31 HB23       37.3137   56.6621   25.5076 H         1 GSH         0.0949
     32 HSG        35.4945   54.7357   26.6293 H         1 GSH         0.1934
     33 HN3        36.0844   58.1170   21.3930 H         1 GSH         0.3346
     34 HA31       39.1538   58.5929   21.4044 H         1 GSH         0.0388
     35 HA32       38.2013   58.1395   19.9505 H         1 GSH         0.0388
     36 H36        29.1215   55.1957   22.0034 H         1 GSH         0.4406
@<TRIPOS>BOND
     1    1    2 1
     2    1   21 1
     3    1   22 1
     4    1   36 1
     5    2    3 1
     6    2    6 1
     7    2   23 1
     8    3    4 2
     9    3    5 1
    10    6    7 1
    11    6   24 1
    12    6   25 1
    13    7    8 1
    14    7   26 1
    15    7   27 1
    16    8    9 2
    17    8   10 am
    18   10   11 1
    19   10   28 1
    20   11   12 1
    21   11   14 1
    22   11   29 1
    23   12   13 2
    24   12   16 am
    25   14   15 1
    26   14   30 1
    27   14   31 1
    28   15   32 1
    29   16   17 1
    30   16   33 1
    31   17   18 1
    32   17   34 1
    33   17   35 1
    34   18   19 2
    35   18   20 1
@<TRIPOS>SUBSTRUCTURE
     1 GSH         1 GROUP   0 A     ****
@<TRIPOS>MOLECULE
2-azaniumyl-5-[[2-(carboxylatomethylamino)-2-oxo-1-(sulfidomethyl)ethyl]amino]-5-oxo-pentanoate
   35    34     1     0     0
SMALL
USER_CHARGES

@<TRIPOS>ATOM
      1 N1         29.4280   55.6180   21.0350 N.4       1 GSH        -0.8279
      2 CA1        30.8570   55.3600   20.8190 C.3       1 GSH        -0.0562
      3 C1         31.1720   53.8470   20.7060 C.2       1 GSH         0.9250
      4 O11        32.1690   53.4940   20.0680 O.co2     1 GSH        -0.7737
      5 O12        30.3380   53.0180   21.3090 O.co2     1 GSH        -0.7737
      6 CB1        31.6820   56.0170   21.9480 C.3       1 GSH        -0.0786
      7 CG1        33.1680   56.2360   21.5350 C.3       1 GSH        -0.1592
      8 CD1        33.9430   56.7830   22.7670 C.2       1 GSH         0.6493
      9 OE1        33.3750   57.4490   23.6470 O.2       1 GSH        -0.6500
     10 N2         35.2490   56.4840   22.7930 N.am      1 GSH        -0.5327
     11 CA2        36.1160   57.1670   23.7590 C.3       1 GSH         0.0252
     12 C2         37.3460   57.7140   23.0170 C.2       1 GSH         0.6417
     13 O2         38.4710   57.7550   23.5310 O.2       1 GSH        -0.7321
     14 CB2        36.6120   56.1590   24.8260 C.3       1 GSH         0.0602
     15 SG2        35.2670   55.4640   25.8370 S.3       1 GSH        -0.9396
     16 N3         37.1200   58.1640   21.7610 N.am      1 GSH        -0.4888
     17 CA3        38.1830   58.6980   20.8980 C.3       1 GSH        -0.0308
     18 C3         37.9070   60.1660   20.6210 C.2       1 GSH         0.9071
     19 O31        38.5800   60.6930   19.7190 O.co2     1 GSH        -0.8497
     20 O32        37.0370   60.7560   21.3120 O.co2     1 GSH        -0.8497
     21 HN11       28.8448   55.1486   20.2291 H         1 GSH         0.4376
     22 HN12       29.2471   56.7030   21.0344 H         1 GSH         0.4376
     23 HA1        31.0841   55.8300   19.8507 H         1 GSH         0.0849
     24 HB12       31.2475   56.9963   22.1974 H         1 GSH         0.0714
     25 HB13       31.6651   55.3709   22.8381 H         1 GSH         0.0714
     26 HG12       33.6032   55.2793   21.2106 H         1 GSH         0.0650
     27 HG13       33.2159   56.9598   20.7080 H         1 GSH         0.0650
     28 HN2        35.6733   55.7388   22.1040 H         1 GSH         0.3225
     29 HA2        35.5132   57.9697   24.2088 H         1 GSH         0.0944
     30 HB22       37.1213   55.3201   24.3291 H         1 GSH         0.0140
     31 HB23       37.3137   56.6621   25.5076 H         1 GSH         0.0140
     32 HN3        36.0844   58.1170   21.3930 H         1 GSH         0.3772
     33 HA31       39.1538   58.5929   21.4044 H         1 GSH         0.0209
     34 HA32       38.2013   58.1395   19.9505 H         1 GSH         0.0209
     35 H35        29.1215   55.1957   22.0034 H         1 GSH         0.4376
@<TRIPOS>BOND
     1    1    2 1
     2    1   21 1
     3    1   22 1
     4    1   35 1
     5    2    3 1
     6    2    6 1
     7    2   23 1
     8    3    4 2
     9    3    5 1
    10    6    7 1
    11    6   24 1
    12    6   25 1
    13    7    8 1
    14    7   26 1
    15    7   27 1
    16    8    9 2
    17    8   10 am
    18   10   11 1
    19   10   28 1
    20   11   12 1
    21   11   14 1
    22   11   29 1
    23   12   13 2
    24   12   16 am
    25   14   15 1
    26   14   30 1
    27   14   31 1
    28   16   17 1
    29   16   32 1
    30   17   18 1
    31   17   33 1
    32   17   34 1
    33   18   19 2
    34   18   20 1
@<TRIPOS>SUBSTRUCTURE
     1 GSH         1 GROUP   0 A     ****
@<TRIPOS>MOLECULE
2-amino-5-[[2-(carboxylatomethylamino)-2-oxo-1-(sulfanylmethyl)ethyl]amino]-5-oxo-pentanoate
   35    34     1     0     0
SMALL
USER_CHARGES

@<TRIPOS>ATOM
      1 N1         29.4280   55.6180   21.0350 N.3       1 GSH        -0.8979
      2 CA1        30.8570   55.3600   20.8190 C.3       1 GSH         0.0216
      3 C1         31.1720   53.8470   20.7060 C.2       1 GSH         0.8874
      4 O11        32.1690   53.4940   20.0680 O.co2     1 GSH        -0.8470
      5 O12        30.3380   53.0180   21.3090 O.co2     1 GSH        -0.8470
      6 CB1        31.6820   56.0170   21.9480 C.3       1 GSH        -0.0464
      7 CG1        33.1680   56.2360   21.5350 C.3       1 GSH        -0.1440
      8 CD1        33.9430   56.7830   22.7670 C.2       1 GSH         0.6563
      9 OE1        33.3750   57.4490   23.6470 O.2       1 GSH        -0.6175
     10 N2         35.2490   56.4840   22.7930 N.am      1 GSH        -0.5832
     11 CA2        36.1160   57.1670   23.7590 C.3       1 GSH         0.0271
     12 C2         37.3460   57.7140   23.0170 C.2       1 GSH         0.6421
     13 O2         38.4710   57.7550   23.5310 O.2       1 GSH        -0.6524
     14 CB2        36.6120   56.1590   24.8260 C.3       1 GSH         0.0053
     15 SG2        35.2670   55.4640   25.8370 S.3       1 GSH        -0.3951
     16 N3         37.1200   58.1640   21.7610 N.am      1 GSH        -0.5161
     17 CA3        38.1830   58.6980   20.8980 C.3       1 GSH        -0.0341
     18 C3         37.9070   60.1660   20.6210 C.2       1 GSH         0.8976
     19 O31        38.5800   60.6930   19.7190 O.co2     1 GSH        -0.8328
     20 O32        37.0370   60.7560   21.3120 O.co2     1 GSH        -0.8328
     21 HN11       29.1163   55.1760   21.9928 H         1 GSH         0.3320
     22 HN12       29.2506   56.7034   21.0570 H         1 GSH         0.3320
     23 HA1        31.0841   55.8300   19.8507 H         1 GSH         0.0317
     24 HB12       31.2475   56.9963   22.1974 H         1 GSH         0.0608
     25 HB13       31.6651   55.3709   22.8381 H         1 GSH         0.0608
     26 HG12       33.6032   55.2793   21.2106 H         1 GSH         0.0637
     27 HG13       33.2159   56.9598   20.7080 H         1 GSH         0.0637
     28 HN2        35.6733   55.7388   22.1040 H         1 GSH         0.3262
     29 HA2        35.5132   57.9697   24.2088 H         1 GSH         0.0897
     30 HB22       37.1213   55.3201   24.3291 H         1 GSH         0.0806
     31 HB23       37.3137   56.6621   25.5076 H         1 GSH         0.0806
     32 HSG        35.4945   54.7357   26.6293 H         1 GSH         0.2068
     33 HN3        36.0844   58.1170   21.3930 H         1 GSH         0.3128
     34 HA31       39.1538   58.5929   21.4044 H         1 GSH         0.0337
     35 HA32       38.2013   58.1395   19.9505 H         1 GSH         0.0337
@<TRIPOS>BOND
     1    1    2 1
     2    1   21 1
     3    1   22 1
     4    2    3 1
     5    2    6 1
     6    2   23 1
     7    3    4 2
     8    3    5 1
     9    6    7 1
    10    6   24 1
    11    6   25 1
    12    7    8 1
    13    7   26 1
    14    7   27 1
    15    8    9 2
    16    8   10 am
    17   10   11 1
    18   10   28 1
    19   11   12 1
    20   11   14 1
    21   11   29 1
    22   12   13 2
    23   12   16 am
    24   14   15 1
    25   14   30 1
    26   14   31 1
    27   15   32 1
    28   16   17 1
    29   16   33 1
    30   17   18 1
    31   17   34 1
    32   17   35 1
    33   18   19 2
    34   18   20 1
@<TRIPOS>SUBSTRUCTURE
     1 GSH         1 GROUP   0 A     ****
@<TRIPOS>MOLECULE
2-azaniumyl-5-[[2-(carboxymethylamino)-2-oxo-1-(sulfanylmethyl)ethyl]amino]-5-oxo-pentanoate
   37    36     1     0     0
SMALL
USER_CHARGES

@<TRIPOS>ATOM
      1 N1         29.4280   55.6180   21.0350 N.4       1 GSH        -0.7726
      2 CA1        30.8570   55.3600   20.8190 C.3       1 GSH         0.1475
      3 C1         31.1720   53.8470   20.7060 C.2       1 GSH         0.5806
      4 O11        32.1690   53.4940   20.0680 O.co2     1 GSH        -0.2653
      5 O12        30.3380   53.0180   21.3090 O.co2     1 GSH        -0.2653
      6 CB1        31.6820   56.0170   21.9480 C.3       1 GSH         0.0786
      7 CG1        33.1680   56.2360   21.5350 C.3       1 GSH         0.0286
      8 CD1        33.9430   56.7830   22.7670 C.2       1 GSH         0.3561
      9 OE1        33.3750   57.4490   23.6470 O.2       1 GSH        -0.2391
     10 N2         35.2490   56.4840   22.7930 N.am      1 GSH        -0.1909
     11 CA2        36.1160   57.1670   23.7590 C.3       1 GSH         0.0267
     12 C2         37.3460   57.7140   23.0170 C.2       1 GSH         0.3561
     13 O2         38.4710   57.7550   23.5310 O.2       1 GSH        -0.2391
     14 CB2        36.6120   56.1590   24.8260 C.3       1 GSH         0.2607
     15 SG2        35.2670   55.4640   25.8370 S.3       1 GSH        -0.3539
     16 N3         37.1200   58.1640   21.7610 N.am      1 GSH        -0.1909
     17 CA3        38.1830   58.6980   20.8980 C.3       1 GSH         0.0660
     18 C3         37.9070   60.1660   20.6210 C.2       1 GSH         0.3291
     19 O31        38.5800   60.6930   19.7190 O.2       1 GSH        -0.1890
     20 O32        37.0370   60.7560   21.3120 O.3       1 GSH        -0.2911
     21 HN11       28.8448   55.1486   20.2291 H         1 GSH         0.2048
     22 HN12       29.2471   56.7030   21.0344 H         1 GSH         0.2048
     23 HA1        31.0841   55.8300   19.8507 H         1 GSH        -0.0393
     24 HB12       31.2475   56.9963   22.1974 H         1 GSH        -0.0393
     25 HB13       31.6651   55.3709   22.8381 H         1 GSH        -0.0393
     26 HG12       33.6032   55.2793   21.2106 H         1 GSH        -0.0393
     27 HG13       33.2159   56.9598   20.7080 H         1 GSH        -0.0393
     28 HN2        35.6733   55.7388   22.1040 H         1 GSH         0.0865
     29 HA2        35.5132   57.9697   24.2088 H         1 GSH        -0.0393
     30 HB22       37.1213   55.3201   24.3291 H         1 GSH        -0.0393
     31 HB23       37.3137   56.6621   25.5076 H         1 GSH        -0.0393
     32 HSG        35.4945   54.7357   26.6293 H         1 GSH         0.1718
     33 HN3        36.0844   58.1170   21.3930 H         1 GSH         0.0865
     34 HA31       39.1538   58.5929   21.4044 H         1 GSH        -0.0393
     35 HA32       38.2013   58.1395   19.9505 H         1 GSH        -0.0393
     36 H32        36.4886   60.2070   22.0917 H         1 GSH         0.2010
     37 H37        29.1215   55.1957   22.0034 H         1 GSH         0.2048
@<TRIPOS>BOND
     1    1    2 1
     2    1   21 1
     3    1   22 1
     4    1   37 1
     5    2    3 1
     6    2    6 1
     7    2   23 1
     8    3    4 2
     9    3    5 1
    10    6    7 1
    11    6   24 1
    12    6   25 1
    13    7    8 1
    14    7   26 1
    15    7   27 1
    16    8    9 2
    17    8   10 am
    18   10   11 1
    19   10   28 1
    20   11   12 1
    21   11   14 1
    22   11   29 1
    23   12   13 2
    24   12   16 am
    25   14   15 1
    26   14   30 1
    27   14   31 1
    28   15   32 1
    29   16   17 1
    30   16   33 1
    31   17   18 1
    32   17   34 1
    33   17   35 1
    34   18   19 2
    35   18   20 1
    36   20   36 1
@<TRIPOS>SUBSTRUCTURE
     1 GSH         1 GROUP   0 A     ****
