@<TRIPOS>MOLECULE
TLA
14   13    1
SMALL
USER_CHARGES


@<TRIPOS>ATOM
      1 O1         33.8570   44.6120   63.5440 O.co2     1 TLA         0.0000 
      2 O11        33.7530   45.2180   65.6970 O.co2     1 TLA         0.0000 
      3 C1         33.4540   45.3610   64.4610 C.2       1 TLA         0.0000 
      4 C2         32.5220   46.5590   64.2260 C.3       1 TLA         0.0000 
      5 O2         31.9470   46.8880   65.5030 O.3       1 TLA         0.0000 
      6 C3         31.4590   46.1860   63.1870 C.3       1 TLA         0.0000 
      7 O3         30.6160   45.1510   63.6960 O.3       1 TLA         0.0000 
      8 C4         30.5240   47.3480   62.8510 C.2       1 TLA         0.0000 
      9 O4         29.3690   47.2240   63.3130 O.co2     1 TLA         0.0000 
     10 O41        30.8960   48.3610   62.1450 O.co2     1 TLA         0.0000 
     11 H2         33.0380   47.4668   63.8803 H         1 TLA         0.0000 
     12 HA         32.5981   47.1749   66.3419 H         1 TLA         0.0000 
     13 H3         31.9857   45.8177   62.2943 H         1 TLA         0.0000 
     14 HB         31.0526   44.1930   64.0148 H         1 TLA         0.0000 
@<TRIPOS>BOND
     1    1    3 2    
     2    2    3 1    
     3    3    4 1    
     4    4    5 1    
     5    4    6 1    
     6    4   11 1    
     7    5   12 1    
     8    6    7 1    
     9    6    8 1    
    10    6   13 1    
    11    7   14 1    
    12    8    9 2    
    13    8   10 1    
@<TRIPOS>SUBSTRUCTURE
     1 TLA         1 GROUP             0       ****    0 ROOT    
