ADP
  CCTOOLS-0326171057

 42 44  0  0  1  0  0  0  0  0999 V2000
   44.6690    2.9280   38.5560 P   0  0  0  0  0
   46.0210    3.5080   38.3170 O   0  0  0  0  0
   43.7090    3.8120   37.9050 O   0  0  0  0  0
   44.4590    1.4490   38.3820 O   0  0  0  0  0
   43.2300    2.9550   41.1100 P   0  0  0  0  0
   41.9750    3.4970   40.5730 O   0  0  0  0  0
   42.9620    1.5010   41.4010 O   0  0  0  0  0
   44.5220    3.2100   40.2120 O   0  0  0  0  0
   43.4620    3.8320   42.4070 O   0  0  0  0  0
   43.7350    5.2460   42.3350 C   0  0  0  0  0
   43.0950    5.8100   43.6260 C   0  0  0  0  0
   43.7640    5.2610   44.7790 O   0  0  0  0  0
   43.3370    7.3250   43.6170 C   0  0  0  0  0
   42.0560    7.9880   43.5600 O   0  0  0  0  0
   43.9460    7.5930   45.0830 C   0  0  0  0  0
   43.5540    8.7260   45.8770 O   0  0  0  0  0
   43.6130    6.2750   45.8130 C   0  0  0  0  0
   44.3750    5.7810   46.9910 N   0  0  0  0  0
   45.7110    5.4860   47.0620 C   0  0  0  0  0
   46.2020    5.3790   48.2820 N   0  0  0  0  0
   45.0670    5.5970   49.0640 C   0  0  0  0  0
   44.8830    5.6230   50.4990 C   0  0  0  0  0
   45.9120    5.4330   51.3250 N   0  0  0  0  0
   43.6260    5.8520   50.8960 N   0  0  0  0  0
   42.5900    6.0760   50.0670 C   0  0  0  0  0
   42.6750    6.0670   48.7350 N   0  0  0  0  0
   43.9510    5.8210   48.3040 C   0  0  0  0  0
   42.8470    3.4420   38.0570 H   0  0  0  0  0
   43.5970    1.0790   38.5340 H   0  0  0  0  0
   43.7730    1.1500   41.7480 H   0  0  0  0  0
   44.8120    5.5000   42.2060 H   0  0  0  0  0
   43.3850    5.7350   41.3960 H   0  0  0  0  0
   42.0100    5.5560   43.6680 H   0  0  0  0  0
   43.9780    7.6720   42.7730 H   0  0  0  0  0
   42.2050    8.9260   43.5540 H   0  0  0  0  0
   45.0140    7.8790   44.9410 H   0  0  0  0  0
   43.9130    8.8840   46.7420 H   0  0  0  0  0
   42.6210    6.4820   46.2790 H   0  0  0  0  0
   46.3580    5.3410   46.1810 H   0  0  0  0  0
   45.7820    5.4510   52.3360 H   0  0  0  0  0
   46.6390    6.1070   51.0860 H   0  0  0  0  0
   41.6010    6.2810   50.5100 H   0  0  0  0  0
  1  2  2  0  0  0
  1  3  1  0  0  0
  1  4  1  0  0  0
  1  8  1  0  0  0
  3 28  1  0  0  0
  4 29  1  0  0  0
  5  6  2  0  0  0
  5  7  1  0  0  0
  5  8  1  0  0  0
  5  9  1  0  0  0
  7 30  1  0  0  0
  9 10  1  0  0  0
 10 11  1  0  0  0
 10 31  1  0  0  0
 10 32  1  0  0  0
 11 12  1  0  0  0
 11 13  1  0  0  0
 11 33  1  0  0  0
 12 17  1  0  0  0
 13 14  1  0  0  0
 13 15  1  0  0  0
 13 34  1  0  0  0
 14 35  1  0  0  0
 15 16  1  0  0  0
 15 17  1  0  0  0
 15 36  1  0  0  0
 16 37  1  0  0  0
 17 18  1  0  0  0
 17 38  1  0  0  0
 18 19  1  0  0  0
 18 27  1  0  0  0
 19 20  2  0  0  0
 19 39  1  0  0  0
 20 21  1  0  0  0
 21 22  1  0  0  0
 21 27  2  0  0  0
 22 23  1  0  0  0
 22 24  2  0  0  0
 23 40  1  0  0  0
 23 41  1  0  0  0
 24 25  1  0  0  0
 25 26  2  0  0  0
 25 42  1  0  0  0
 26 27  1  0  0  0
M  END
$$$$
