@<TRIPOS>MOLECULE
citric acid
   21    20     1     0     0
SMALL
USER_CHARGES

@<TRIPOS>ATOM
      1 C1         68.4180   48.3850   33.0230 C.2       1 CIT         0.3291
      2 O1         68.8200   47.5710   32.3980 O.2       1 CIT        -0.1890
      3 O2         68.6370   49.5560   32.9780 O.3       1 CIT        -0.2911
      4 C2         67.4830   48.0690   34.2230 C.3       1 CIT         0.0286
      5 C3         65.9350   48.1150   34.0490 C.3       1 CIT         0.0218
      6 O7         65.4890   49.4220   33.5830 O.3       1 CIT        -0.2728
      7 C4         65.5390   47.1450   32.9120 C.3       1 CIT         0.0286
      8 C5         64.0420   46.9920   32.7920 C.2       1 CIT         0.3291
      9 O3         63.6500   46.2810   31.7410 O.2       1 CIT        -0.1890
     10 O4         63.2220   47.3690   33.5850 O.3       1 CIT        -0.2911
     11 C6         65.2600   47.7760   35.3540 C.2       1 CIT         0.3291
     12 O5         65.3250   46.5580   35.7260 O.2       1 CIT        -0.1890
     13 O6         64.7220   48.7180   36.0170 O.3       1 CIT        -0.2911
     14 HO2        69.2843   49.9645   32.1880 H         1 CIT         0.2010
     15 H21        67.6764   47.0464   34.5791 H         1 CIT        -0.0393
     16 H22        67.6766   48.7834   35.0367 H         1 CIT        -0.0393
     17 HO7        65.8803   49.8328   32.6406 H         1 CIT         0.2010
     18 H41        65.9223   47.5268   31.9542 H         1 CIT        -0.0393
     19 H42        65.9701   46.1525   33.1099 H         1 CIT        -0.0393
     20 HO4        63.5333   47.9587   34.4598 H         1 CIT         0.2010
     21 HO6        64.7147   49.7409   35.6124 H         1 CIT         0.2010
@<TRIPOS>BOND
     1    1    2 2
     2    1    3 1
     3    1    4 1
     4    3   14 1
     5    4    5 1
     6    4   15 1
     7    4   16 1
     8    5    6 1
     9    5    7 1
    10    5   11 1
    11    6   17 1
    12    7    8 1
    13    7   18 1
    14    7   19 1
    15    8    9 2
    16    8   10 1
    17   10   20 1
    18   11   12 2
    19   11   13 1
    20   13   21 1
@<TRIPOS>SUBSTRUCTURE
     1 CIT         1 GROUP   0 A     ****
@<TRIPOS>MOLECULE
3-carboxy-3,5-dihydroxy-5-oxo-pentanoate
   20    19     1     0     0
SMALL
USER_CHARGES

@<TRIPOS>ATOM
      1 C1         68.4180   48.3850   33.0230 C.2       1 CIT         0.9051
      2 O1         68.8200   47.5710   32.3980 O.co2     1 CIT        -0.8257
      3 O2         68.6370   49.5560   32.9780 O.co2     1 CIT        -0.8257
      4 C2         67.4830   48.0690   34.2230 C.3       1 CIT        -0.2464
      5 C3         65.9350   48.1150   34.0490 C.3       1 CIT         0.1708
      6 O7         65.4890   49.4220   33.5830 O.3       1 CIT        -0.5999
      7 C4         65.5390   47.1450   32.9120 C.3       1 CIT        -0.1232
      8 C5         64.0420   46.9920   32.7920 C.2       1 CIT         0.6538
      9 O3         63.6500   46.2810   31.7410 O.2       1 CIT        -0.5809
     10 O4         63.2220   47.3690   33.5850 O.3       1 CIT        -0.5985
     11 C6         65.2600   47.7760   35.3540 C.2       1 CIT         0.6383
     12 O5         65.3250   46.5580   35.7260 O.2       1 CIT        -0.5403
     13 O6         64.7220   48.7180   36.0170 O.3       1 CIT        -0.6271
     14 H21        67.6764   47.0464   34.5791 H         1 CIT         0.0495
     15 H22        67.6766   48.7834   35.0367 H         1 CIT         0.0495
     16 HO7        65.8803   49.8328   32.6406 H         1 CIT         0.4534
     17 H41        65.9223   47.5268   31.9542 H         1 CIT         0.0934
     18 H42        65.9701   46.1525   33.1099 H         1 CIT         0.0934
     19 HO4        63.5333   47.9587   34.4598 H         1 CIT         0.4321
     20 HO6        64.7147   49.7409   35.6124 H         1 CIT         0.4284
@<TRIPOS>BOND
     1    1    2 2
     2    1    3 1
     3    1    4 1
     4    4    5 1
     5    4   14 1
     6    4   15 1
     7    5    6 1
     8    5    7 1
     9    5   11 1
    10    6   16 1
    11    7    8 1
    12    7   17 1
    13    7   18 1
    14    8    9 2
    15    8   10 1
    16   10   19 1
    17   11   12 2
    18   11   13 1
    19   13   20 1
@<TRIPOS>SUBSTRUCTURE
     1 CIT         1 GROUP   0 A     ****
@<TRIPOS>MOLECULE
2-(carboxymethyl)-2,4-dihydroxy-4-oxo-butanoate
   20    19     1     0     0
SMALL
USER_CHARGES

@<TRIPOS>ATOM
      1 C1         68.4180   48.3850   33.0230 C.2       1 CIT         0.3291
      2 O1         68.8200   47.5710   32.3980 O.2       1 CIT        -0.1890
      3 O2         68.6370   49.5560   32.9780 O.3       1 CIT        -0.2911
      4 C2         67.4830   48.0690   34.2230 C.3       1 CIT         0.0286
      5 C3         65.9350   48.1150   34.0490 C.3       1 CIT         0.0218
      6 O7         65.4890   49.4220   33.5830 O.3       1 CIT        -0.2728
      7 C4         65.5390   47.1450   32.9120 C.3       1 CIT         0.0286
      8 C5         64.0420   46.9920   32.7920 C.2       1 CIT         0.3291
      9 O3         63.6500   46.2810   31.7410 O.2       1 CIT        -0.1890
     10 O4         63.2220   47.3690   33.5850 O.3       1 CIT        -0.2911
     11 C6         65.2600   47.7760   35.3540 C.2       1 CIT         0.5806
     12 O5         65.3250   46.5580   35.7260 O.co2     1 CIT        -0.2653
     13 O6         64.7220   48.7180   36.0170 O.co2     1 CIT        -0.2653
     14 HO2        69.2843   49.9645   32.1880 H         1 CIT         0.2010
     15 H21        67.6764   47.0464   34.5791 H         1 CIT        -0.0393
     16 H22        67.6766   48.7834   35.0367 H         1 CIT        -0.0393
     17 HO7        65.8803   49.8328   32.6406 H         1 CIT         0.2010
     18 H41        65.9223   47.5268   31.9542 H         1 CIT        -0.0393
     19 H42        65.9701   46.1525   33.1099 H         1 CIT        -0.0393
     20 HO4        63.5333   47.9587   34.4598 H         1 CIT         0.2010
@<TRIPOS>BOND
     1    1    2 2
     2    1    3 1
     3    1    4 1
     4    3   14 1
     5    4    5 1
     6    4   15 1
     7    4   16 1
     8    5    6 1
     9    5    7 1
    10    5   11 1
    11    6   17 1
    12    7    8 1
    13    7   18 1
    14    7   19 1
    15    8    9 2
    16    8   10 1
    17   10   20 1
    18   11   12 2
    19   11   13 1
@<TRIPOS>SUBSTRUCTURE
     1 CIT         1 GROUP   0 A     ****
@<TRIPOS>MOLECULE
2-(carboxymethyl)-2-hydroxy-butanedioate
   19    18     1     0     0
SMALL
USER_CHARGES

@<TRIPOS>ATOM
      1 C1         68.4180   48.3850   33.0230 C.2       1 CIT         0.9153
      2 O1         68.8200   47.5710   32.3980 O.co2     1 CIT        -0.8839
      3 O2         68.6370   49.5560   32.9780 O.co2     1 CIT        -0.8839
      4 C2         67.4830   48.0690   34.2230 C.3       1 CIT        -0.1700
      5 C3         65.9350   48.1150   34.0490 C.3       1 CIT         0.0775
      6 O7         65.4890   49.4220   33.5830 O.3       1 CIT        -0.6145
      7 C4         65.5390   47.1450   32.9120 C.3       1 CIT        -0.1458
      8 C5         64.0420   46.9920   32.7920 C.2       1 CIT         0.6833
      9 O3         63.6500   46.2810   31.7410 O.2       1 CIT        -0.5679
     10 O4         63.2220   47.3690   33.5850 O.3       1 CIT        -0.6653
     11 C6         65.2600   47.7760   35.3540 C.2       1 CIT         0.8870
     12 O5         65.3250   46.5580   35.7260 O.co2     1 CIT        -0.8565
     13 O6         64.7220   48.7180   36.0170 O.co2     1 CIT        -0.8565
     14 H21        67.6764   47.0464   34.5791 H         1 CIT         0.0495
     15 H22        67.6766   48.7834   35.0367 H         1 CIT         0.0495
     16 HO7        65.8803   49.8328   32.6406 H         1 CIT         0.3906
     17 H41        65.9223   47.5268   31.9542 H         1 CIT         0.0954
     18 H42        65.9701   46.1525   33.1099 H         1 CIT         0.0954
     19 HO4        63.5333   47.9587   34.4598 H         1 CIT         0.4007
@<TRIPOS>BOND
     1    1    2 2
     2    1    3 1
     3    1    4 1
     4    4    5 1
     5    4   14 1
     6    4   15 1
     7    5    6 1
     8    5    7 1
     9    5   11 1
    10    6   16 1
    11    7    8 1
    12    7   17 1
    13    7   18 1
    14    8    9 2
    15    8   10 1
    16   10   19 1
    17   11   12 2
    18   11   13 1
@<TRIPOS>SUBSTRUCTURE
     1 CIT         1 GROUP   0 A     ****
@<TRIPOS>MOLECULE
3-carboxy-3-hydroxy-pentanedioate
   19    18     1     0     0
SMALL
USER_CHARGES

@<TRIPOS>ATOM
      1 C1         68.4180   48.3850   33.0230 C.2       1 CIT         0.9181
      2 O1         68.8200   47.5710   32.3980 O.co2     1 CIT        -0.8576
      3 O2         68.6370   49.5560   32.9780 O.co2     1 CIT        -0.8576
      4 C2         67.4830   48.0690   34.2230 C.3       1 CIT        -0.2109
      5 C3         65.9350   48.1150   34.0490 C.3       1 CIT         0.1904
      6 O7         65.4890   49.4220   33.5830 O.3       1 CIT        -0.5718
      7 C4         65.5390   47.1450   32.9120 C.3       1 CIT        -0.2109
      8 C5         64.0420   46.9920   32.7920 C.2       1 CIT         0.9181
      9 O3         63.6500   46.2810   31.7410 O.co2     1 CIT        -0.8576
     10 O4         63.2220   47.3690   33.5850 O.co2     1 CIT        -0.8576
     11 C6         65.2600   47.7760   35.3540 C.2       1 CIT         0.6388
     12 O5         65.3250   46.5580   35.7260 O.2       1 CIT        -0.5905
     13 O6         64.7220   48.7180   36.0170 O.3       1 CIT        -0.6361
     14 H21        67.6764   47.0464   34.5791 H         1 CIT         0.0410
     15 H22        67.6766   48.7834   35.0367 H         1 CIT         0.0410
     16 HO7        65.8803   49.8328   32.6406 H         1 CIT         0.4229
     17 H41        65.9223   47.5268   31.9542 H         1 CIT         0.0410
     18 H42        65.9701   46.1525   33.1099 H         1 CIT         0.0410
     19 HO6        64.7147   49.7409   35.6124 H         1 CIT         0.3982
@<TRIPOS>BOND
     1    1    2 2
     2    1    3 1
     3    1    4 1
     4    4    5 1
     5    4   14 1
     6    4   15 1
     7    5    6 1
     8    5    7 1
     9    5   11 1
    10    6   16 1
    11    7    8 1
    12    7   17 1
    13    7   18 1
    14    8    9 2
    15    8   10 1
    16   11   12 2
    17   11   13 1
    18   13   19 1
@<TRIPOS>SUBSTRUCTURE
     1 CIT         1 GROUP   0 A     ****
@<TRIPOS>MOLECULE
citrate
   18    17     1     0     0
SMALL
USER_CHARGES

@<TRIPOS>ATOM
      1 C1         68.4180   48.3850   33.0230 C.2       1 CIT         0.9143
      2 O1         68.8200   47.5710   32.3980 O.co2     1 CIT        -0.9026
      3 O2         68.6370   49.5560   32.9780 O.co2     1 CIT        -0.9026
      4 C2         67.4830   48.0690   34.2230 C.3       1 CIT        -0.1599
      5 C3         65.9350   48.1150   34.0490 C.3       1 CIT         0.0992
      6 O7         65.4890   49.4220   33.5830 O.3       1 CIT        -0.5986
      7 C4         65.5390   47.1450   32.9120 C.3       1 CIT        -0.1599
      8 C5         64.0420   46.9920   32.7920 C.2       1 CIT         0.9143
      9 O3         63.6500   46.2810   31.7410 O.co2     1 CIT        -0.9026
     10 O4         63.2220   47.3690   33.5850 O.co2     1 CIT        -0.9026
     11 C6         65.2600   47.7760   35.3540 C.2       1 CIT         0.8996
     12 O5         65.3250   46.5580   35.7260 O.co2     1 CIT        -0.8881
     13 O6         64.7220   48.7180   36.0170 O.co2     1 CIT        -0.8881
     14 H21        67.6764   47.0464   34.5791 H         1 CIT         0.0229
     15 H22        67.6766   48.7834   35.0367 H         1 CIT         0.0229
     16 HO7        65.8803   49.8328   32.6406 H         1 CIT         0.3863
     17 H41        65.9223   47.5268   31.9542 H         1 CIT         0.0229
     18 H42        65.9701   46.1525   33.1099 H         1 CIT         0.0229
@<TRIPOS>BOND
     1    1    2 2
     2    1    3 1
     3    1    4 1
     4    4    5 1
     5    4   14 1
     6    4   15 1
     7    5    6 1
     8    5    7 1
     9    5   11 1
    10    6   16 1
    11    7    8 1
    12    7   17 1
    13    7   18 1
    14    8    9 2
    15    8   10 1
    16   11   12 2
    17   11   13 1
@<TRIPOS>SUBSTRUCTURE
     1 CIT         1 GROUP   0 A     ****
