@<TRIPOS>MOLECULE
2-amino-4-[[5-(6-aminopurin-9-yl)-3,4-dihydroxy-tetrahydrofuran-2-yl]methylsulfanyl]butanoate
   45    47     1     0     0
SMALL
USER_CHARGES

@<TRIPOS>ATOM
      1 C2         -6.6940    6.3660   17.5220 C.ar      1 SAH         0.6757
      2 C8         -2.4550    5.6770   18.2020 C.ar      1 SAH         0.5465
      3 C5         -4.1920    5.7280   16.9550 C.ar      1 SAH        -0.2236
      4 C4         -4.5990    6.2900   18.1330 C.ar      1 SAH         0.5820
      5 C6         -5.1660    5.6140   15.9680 C.ar      1 SAH         0.7428
      6 C          -4.7190   12.6510   26.2500 C.2       1 SAH         0.8840
      7 C3'        -2.7810    6.5900   22.6150 C.3       1 SAH         0.0691
      8 C2'        -3.0230    5.6880   21.3550 C.3       1 SAH         0.0733
      9 C4'        -2.5480    8.0170   21.8880 C.3       1 SAH         0.1517
     10 C1'        -3.4830    6.7390   20.3130 C.3       1 SAH         0.4064
     11 C5'        -1.2660    8.7480   22.1870 C.3       1 SAH        -0.0259
     12 CB         -2.9430   11.1320   25.1840 C.3       1 SAH        -0.0546
     13 CG         -2.4920   10.4960   23.8630 C.3       1 SAH         0.0012
     14 CA         -4.2000   11.9820   24.9600 C.3       1 SAH         0.0191
     15 N3         -5.8590    6.6230   18.5010 N.ar      1 SAH        -0.7219
     16 N1         -6.4250    5.9470   16.3060 N.ar      1 SAH        -0.7972
     17 N7         -2.8580    5.2660   17.0360 N.ar      1 SAH        -0.5532
     18 N9         -3.4680    6.3410   18.9140 N.pl3     1 SAH        -0.6980
     19 N6         -4.8690    5.1060   14.7690 N.pl3     1 SAH        -0.9482
     20 N          -3.9390   12.9490   23.9010 N.3       1 SAH        -0.8929
     21 OXT        -4.5570   12.0620   27.3540 O.co2     1 SAH        -0.8395
     22 O          -5.6170   13.5130   26.0830 O.co2     1 SAH        -0.8395
     23 O4'        -2.5910    7.8390   20.4400 O.3       1 SAH        -0.3978
     24 O3'        -3.8780    6.6110   23.5890 O.3       1 SAH        -0.5798
     25 O2'        -3.9020    4.5270   21.4480 O.3       1 SAH        -0.5832
     26 SD         -1.1570    9.2870   23.8890 S.3       1 SAH        -0.3157
     27 H2         -7.7533    6.5214   17.7474 H         1 SAH         0.0469
     28 H8         -1.4704    5.5518   18.6283 H         1 SAH         0.0873
     29 H3'        -1.8571    6.2691   23.1639 H         1 SAH         0.0649
     30 H2'        -2.0062    5.2896   21.0209 H         1 SAH         0.0939
     31 H4'        -3.4148    8.6984   22.1287 H         1 SAH         0.0983
     32 H1'        -4.5209    7.1031   20.5138 H         1 SAH         0.1208
     33 H5'1       -1.1741    9.6280   21.5204 H         1 SAH         0.0674
     34 H5'2       -0.4018    8.0945   21.9569 H         1 SAH         0.0674
     35 HB1        -3.1651   10.3470   25.9061 H         1 SAH         0.0339
     36 HB2        -2.1416   11.7509   25.5864 H         1 SAH         0.0339
     37 HG1        -3.3887   10.0172   23.3575 H         1 SAH         0.0967
     38 HG2        -2.2014   11.3130   23.1311 H         1 SAH         0.0967
     39 HA         -4.9936   11.3238   24.5801 H         1 SAH         0.0401
     40 HN61       -5.5228    5.2058   14.0157 H         1 SAH         0.4354
     41 HN62       -4.0415    4.5508   14.6604 H         1 SAH         0.4354
     42 HN1        -4.0048   13.9281   24.1130 H         1 SAH         0.3325
     43 HN2        -3.9018   12.6272   22.9507 H         1 SAH         0.3325
     44 HO3'       -4.3397    5.7638   23.4993 H         1 SAH         0.4124
     45 HO2'       -4.7154    4.7410   20.9582 H         1 SAH         0.4228
@<TRIPOS>BOND
     1    1   15 ar
     2    1   16 ar
     3    2   17 ar
     4    2   18 ar
     5    3    4 ar
     6    3    5 ar
     7    3   17 ar
     8    4   15 ar
     9    4   18 ar
    10    5   16 ar
    11    5   19 1
    12    6   14 1
    13    6   21 1
    14    6   22 2
    15    7    8 1
    16    7    9 1
    17    7   24 1
    18    8   10 1
    19    8   25 1
    20    9   11 1
    21    9   23 1
    22   10   18 1
    23   10   23 1
    24   11   26 1
    25   12   13 1
    26   12   14 1
    27   13   26 1
    28   14   20 1
    29    1   27 1
    30    2   28 1
    31    7   29 1
    32    8   30 1
    33    9   31 1
    34   10   32 1
    35   11   33 1
    36   11   34 1
    37   12   35 1
    38   12   36 1
    39   13   37 1
    40   13   38 1
    41   14   39 1
    42   19   40 1
    43   19   41 1
    44   20   42 1
    45   20   43 1
    46   24   44 1
    47   25   45 1
@<TRIPOS>SUBSTRUCTURE
     1 SAH         1 GROUP   0 A     ****
@<TRIPOS>MOLECULE
2-amino-4-[[5-(6-aminopurin-9-yl)-3-hydroxy-4-oxido-tetrahydrofuran-2-yl]methylsulfanyl]butanoate
   44    46     1     0     0
SMALL
USER_CHARGES

@<TRIPOS>ATOM
      1 C2         -6.6940    6.3660   17.5220 C.ar      1 SAH         0.6340
      2 C8         -2.4550    5.6770   18.2020 C.ar      1 SAH         0.5326
      3 C5         -4.1920    5.7280   16.9550 C.ar      1 SAH        -0.2095
      4 C4         -4.5990    6.2900   18.1330 C.ar      1 SAH         0.5685
      5 C6         -5.1660    5.6140   15.9680 C.ar      1 SAH         0.6842
      6 C          -4.7190   12.6510   26.2500 C.2       1 SAH         0.8809
      7 C2'        -3.0230    5.6880   21.3550 C.3       1 SAH         0.3836
      8 C3'        -2.7810    6.5900   22.6150 C.3       1 SAH         0.0310
      9 C4'        -2.5480    8.0170   21.8880 C.3       1 SAH         0.1543
     10 C1'        -3.4830    6.7390   20.3130 C.3       1 SAH         0.2919
     11 C5'        -1.2660    8.7480   22.1870 C.3       1 SAH        -0.0330
     12 CB         -2.9430   11.1320   25.1840 C.3       1 SAH        -0.0472
     13 CG         -2.4920   10.4960   23.8630 C.3       1 SAH         0.0069
     14 CA         -4.2000   11.9820   24.9600 C.3       1 SAH         0.0220
     15 N3         -5.8590    6.6230   18.5010 N.ar      1 SAH        -0.6561
     16 N1         -6.4250    5.9470   16.3060 N.ar      1 SAH        -0.8058
     17 N7         -2.8580    5.2660   17.0360 N.ar      1 SAH        -0.6034
     18 N9         -3.4680    6.3410   18.9140 N.pl3     1 SAH        -0.6075
     19 N6         -4.8690    5.1060   14.7690 N.pl3     1 SAH        -0.9242
     20 N          -3.9390   12.9490   23.9010 N.3       1 SAH        -0.8897
     21 OXT        -4.5570   12.0620   27.3540 O.co2     1 SAH        -0.8495
     22 O2'        -3.9020    4.5270   21.4480 O.3       1 SAH        -0.8180
     23 O          -5.6170   13.5130   26.0830 O.co2     1 SAH        -0.8495
     24 O4'        -2.5910    7.8390   20.4400 O.3       1 SAH        -0.4551
     25 O3'        -3.8780    6.6110   23.5890 O.3       1 SAH        -0.6332
     26 SD         -1.1570    9.2870   23.8890 S.3       1 SAH        -0.2970
     27 H2         -7.7533    6.5214   17.7474 H         1 SAH         0.0314
     28 H8         -1.4704    5.5518   18.6283 H         1 SAH         0.0776
     29 H2'        -1.9398    5.3778   20.9984 H         1 SAH        -0.0565
     30 H3'        -1.8508    6.3326   23.1771 H         1 SAH         0.0573
     31 H4'        -3.4000    8.6774   22.1413 H         1 SAH         0.0712
     32 H1'        -4.5224    7.1329   20.4850 H         1 SAH         0.0779
     33 H5'1       -1.1722    9.6292   21.5212 H         1 SAH         0.0544
     34 H5'2       -0.3999    8.0956   21.9577 H         1 SAH         0.0544
     35 HB1        -3.1651   10.3470   25.9061 H         1 SAH         0.0495
     36 HB2        -2.1416   11.7509   25.5864 H         1 SAH         0.0495
     37 HG1        -3.3886   10.0171   23.3575 H         1 SAH         0.0442
     38 HG2        -2.2013   11.3129   23.1311 H         1 SAH         0.0442
     39 HA         -4.9936   11.3238   24.5801 H         1 SAH         0.0631
     40 HN61       -4.1104    5.4961   14.2426 H         1 SAH         0.3964
     41 HN62       -5.4647    4.4059   14.3693 H         1 SAH         0.3964
     42 HN1        -4.4646   13.8042   23.8865 H         1 SAH         0.3253
     43 HN2        -3.3987   12.6608   23.1054 H         1 SAH         0.3253
     44 HO3'       -4.6165    6.1392   23.1766 H         1 SAH         0.4273
@<TRIPOS>BOND
     1    1   15 ar
     2    1   16 ar
     3    2   17 ar
     4    2   18 ar
     5    3    4 ar
     6    3    5 ar
     7    3   17 ar
     8    4   15 ar
     9    4   18 ar
    10    5   16 ar
    11    5   19 1
    12    6   14 1
    13    6   21 1
    14    6   23 2
    15    7    8 1
    16    7   10 1
    17    7   22 1
    18    8    9 1
    19    8   25 1
    20    9   11 1
    21    9   24 1
    22   10   18 1
    23   10   24 1
    24   11   26 1
    25   12   13 1
    26   12   14 1
    27   13   26 1
    28   14   20 1
    29    1   27 1
    30    2   28 1
    31    7   29 1
    32    8   30 1
    33    9   31 1
    34   10   32 1
    35   11   33 1
    36   11   34 1
    37   12   35 1
    38   12   36 1
    39   13   37 1
    40   13   38 1
    41   14   39 1
    42   19   40 1
    43   19   41 1
    44   20   42 1
    45   20   43 1
    46   25   44 1
@<TRIPOS>SUBSTRUCTURE
     1 SAH         1 GROUP   0 A     ****
@<TRIPOS>MOLECULE
2-amino-4-[[5-(6-aminopurin-9-yl)-4-hydroxy-3-oxido-tetrahydrofuran-2-yl]methylsulfanyl]butanoate
   44    46     1     0     0
SMALL
USER_CHARGES

@<TRIPOS>ATOM
      1 C2         -6.6940    6.3660   17.5220 C.ar      1 SAH         0.6431
      2 C8         -2.4550    5.6770   18.2020 C.ar      1 SAH         0.5581
      3 C5         -4.1920    5.7280   16.9550 C.ar      1 SAH        -0.2097
      4 C4         -4.5990    6.2900   18.1330 C.ar      1 SAH         0.5607
      5 C6         -5.1660    5.6140   15.9680 C.ar      1 SAH         0.7003
      6 C          -4.7190   12.6510   26.2500 C.2       1 SAH         0.8841
      7 C3'        -2.7810    6.5900   22.6150 C.3       1 SAH         0.3778
      8 C2'        -3.0230    5.6880   21.3550 C.3       1 SAH         0.0250
      9 C4'        -2.5480    8.0170   21.8880 C.3       1 SAH         0.0511
     10 C1'        -3.4830    6.7390   20.3130 C.3       1 SAH         0.4114
     11 C5'        -1.2660    8.7480   22.1870 C.3       1 SAH         0.0236
     12 CB         -2.9430   11.1320   25.1840 C.3       1 SAH        -0.0569
     13 CG         -2.4920   10.4960   23.8630 C.3       1 SAH         0.0056
     14 CA         -4.2000   11.9820   24.9600 C.3       1 SAH         0.0232
     15 N3         -5.8590    6.6230   18.5010 N.ar      1 SAH        -0.6889
     16 N1         -6.4250    5.9470   16.3060 N.ar      1 SAH        -0.8062
     17 N7         -2.8580    5.2660   17.0360 N.ar      1 SAH        -0.5956
     18 N9         -3.4680    6.3410   18.9140 N.pl3     1 SAH        -0.6521
     19 N6         -4.8690    5.1060   14.7690 N.pl3     1 SAH        -0.9319
     20 N          -3.9390   12.9490   23.9010 N.3       1 SAH        -0.8885
     21 OXT        -4.5570   12.0620   27.3540 O.co2     1 SAH        -0.8515
     22 O3'        -3.8780    6.6110   23.5890 O.3       1 SAH        -0.8428
     23 O          -5.6170   13.5130   26.0830 O.co2     1 SAH        -0.8515
     24 O4'        -2.5910    7.8390   20.4400 O.3       1 SAH        -0.4253
     25 O2'        -3.9020    4.5270   21.4480 O.3       1 SAH        -0.6338
     26 SD         -1.1570    9.2870   23.8890 S.3       1 SAH        -0.3756
     27 H2         -7.7533    6.5214   17.7474 H         1 SAH         0.0312
     28 H8         -1.4704    5.5518   18.6283 H         1 SAH         0.0927
     29 H3'        -1.7848    6.2970   23.0040 H         1 SAH        -0.0676
     30 H2'        -1.9954    5.2466   21.0169 H         1 SAH         0.0356
     31 H4'        -3.4057    8.7150   22.1151 H         1 SAH         0.0690
     32 H1'        -4.5180    7.1147   20.5120 H         1 SAH         0.0905
     33 H5'1       -1.1719    9.6293   21.5214 H         1 SAH         0.0578
     34 H5'2       -0.3996    8.0958   21.9578 H         1 SAH         0.0578
     35 HB1        -3.1651   10.3470   25.9061 H         1 SAH         0.0405
     36 HB2        -2.1416   11.7509   25.5864 H         1 SAH         0.0405
     37 HG1        -3.3887   10.0172   23.3575 H         1 SAH         0.0767
     38 HG2        -2.2014   11.3130   23.1311 H         1 SAH         0.0767
     39 HA         -4.9936   11.3238   24.5801 H         1 SAH         0.0421
     40 HN61       -5.5207    5.2099   14.0145 H         1 SAH         0.4073
     41 HN62       -4.0440    4.5469   14.6615 H         1 SAH         0.4073
     42 HN1        -3.1195   13.5255   23.9636 H         1 SAH         0.3250
     43 HN2        -4.6722   13.1618   23.2490 H         1 SAH         0.3250
     44 HO2'       -4.1612    4.4569   22.3784 H         1 SAH         0.4384
@<TRIPOS>BOND
     1    1   15 ar
     2    1   16 ar
     3    2   17 ar
     4    2   18 ar
     5    3    4 ar
     6    3    5 ar
     7    3   17 ar
     8    4   15 ar
     9    4   18 ar
    10    5   16 ar
    11    5   19 1
    12    6   14 1
    13    6   21 1
    14    6   23 2
    15    7    8 1
    16    7    9 1
    17    7   22 1
    18    8   10 1
    19    8   25 1
    20    9   11 1
    21    9   24 1
    22   10   18 1
    23   10   24 1
    24   11   26 1
    25   12   13 1
    26   12   14 1
    27   13   26 1
    28   14   20 1
    29    1   27 1
    30    2   28 1
    31    7   29 1
    32    8   30 1
    33    9   31 1
    34   10   32 1
    35   11   33 1
    36   11   34 1
    37   12   35 1
    38   12   36 1
    39   13   37 1
    40   13   38 1
    41   14   39 1
    42   19   40 1
    43   19   41 1
    44   20   42 1
    45   20   43 1
    46   25   44 1
@<TRIPOS>SUBSTRUCTURE
     1 SAH         1 GROUP   0 A     ****
@<TRIPOS>MOLECULE
2-amino-4-[[5-(6-azanidylpurin-9-yl)-3,4-dihydroxy-tetrahydrofuran-2-yl]methylsulfanyl]butanoate
   44    46     1     0     0
SMALL
USER_CHARGES

@<TRIPOS>ATOM
      1 C2         -6.6940    6.3660   17.5220 C.ar      1 SAH         0.6890
      2 C8         -2.4550    5.6770   18.2020 C.ar      1 SAH         0.4144
      3 C5         -4.1920    5.7280   16.9550 C.ar      1 SAH        -0.2439
      4 C6         -5.1660    5.6140   15.9680 C.ar      1 SAH         0.6755
      5 C4         -4.5990    6.2900   18.1330 C.ar      1 SAH         0.5975
      6 C          -4.7190   12.6510   26.2500 C.2       1 SAH         0.8846
      7 C3'        -2.7810    6.5900   22.6150 C.3       1 SAH         0.1217
      8 C2'        -3.0230    5.6880   21.3550 C.3       1 SAH         0.0628
      9 C4'        -2.5480    8.0170   21.8880 C.3       1 SAH         0.1425
     10 C1'        -3.4830    6.7390   20.3130 C.3       1 SAH         0.4085
     11 C5'        -1.2660    8.7480   22.1870 C.3       1 SAH        -0.0391
     12 CB         -2.9430   11.1320   25.1840 C.3       1 SAH        -0.0479
     13 CG         -2.4920   10.4960   23.8630 C.3       1 SAH         0.0096
     14 CA         -4.2000   11.9820   24.9600 C.3       1 SAH         0.0222
     15 N1         -6.4250    5.9470   16.3060 N.ar      1 SAH        -0.8948
     16 N3         -5.8590    6.6230   18.5010 N.ar      1 SAH        -0.8852
     17 N7         -2.8580    5.2660   17.0360 N.ar      1 SAH        -0.4894
     18 N6         -4.8690    5.1060   14.7690 N.2       1 SAH        -0.7592
     19 N9         -3.4680    6.3410   18.9140 N.pl3     1 SAH        -0.7261
     20 N          -3.9390   12.9490   23.9010 N.3       1 SAH        -0.8958
     21 OXT        -4.5570   12.0620   27.3540 O.co2     1 SAH        -0.8435
     22 O          -5.6170   13.5130   26.0830 O.co2     1 SAH        -0.8435
     23 O4'        -2.5910    7.8390   20.4400 O.3       1 SAH        -0.4159
     24 O3'        -3.8780    6.6110   23.5890 O.3       1 SAH        -0.6017
     25 O2'        -3.9020    4.5270   21.4480 O.3       1 SAH        -0.6126
     26 SD         -1.1570    9.2870   23.8890 S.3       1 SAH        -0.3391
     27 H2         -7.7533    6.5208   17.7476 H         1 SAH        -0.0094
     28 H8         -1.4700    5.5533   18.6279 H         1 SAH         0.0453
     29 H3'        -1.8570    6.2694   23.1639 H         1 SAH         0.0786
     30 H2'        -2.0061    5.2895   21.0212 H         1 SAH         0.0664
     31 H4'        -3.4148    8.6985   22.1286 H         1 SAH         0.0985
     32 H1'        -4.5210    7.1029   20.5137 H         1 SAH         0.1056
     33 H5'1       -1.1743    9.6279   21.5204 H         1 SAH         0.0686
     34 H5'2       -0.4019    8.0944   21.9568 H         1 SAH         0.0686
     35 HB1        -3.1651   10.3470   25.9061 H         1 SAH         0.0550
     36 HB2        -2.1416   11.7509   25.5864 H         1 SAH         0.0550
     37 HG1        -3.3887   10.0172   23.3575 H         1 SAH         0.0601
     38 HG2        -2.2014   11.3130   23.1311 H         1 SAH         0.0601
     39 HA         -4.9936   11.3238   24.5801 H         1 SAH         0.0460
     40 HN62       -5.7317    5.0686   14.2072 H         1 SAH         0.3000
     41 HN1        -3.0125   13.3237   23.8057 H         1 SAH         0.3296
     42 HN2        -4.7180   13.3697   23.4276 H         1 SAH         0.3296
     43 HO3'       -3.8955    7.5051   23.9620 H         1 SAH         0.4198
     44 HO2'       -3.9255    4.2571   22.3829 H         1 SAH         0.4317
@<TRIPOS>BOND
     1    1   15 ar
     2    1   16 ar
     3    2   17 ar
     4    2   19 ar
     5    3    4 ar
     6    3    5 ar
     7    3   17 ar
     8    4   15 ar
     9    4   18 1
    10    5   16 ar
    11    5   19 ar
    12    6   14 1
    13    6   21 1
    14    6   22 2
    15    7    8 1
    16    7    9 1
    17    7   24 1
    18    8   10 1
    19    8   25 1
    20    9   11 1
    21    9   23 1
    22   10   19 1
    23   10   23 1
    24   11   26 1
    25   12   13 1
    26   12   14 1
    27   13   26 1
    28   14   20 1
    29    1   27 1
    30    2   28 1
    31    7   29 1
    32    8   30 1
    33    9   31 1
    34   10   32 1
    35   11   33 1
    36   11   34 1
    37   12   35 1
    38   12   36 1
    39   13   37 1
    40   13   38 1
    41   14   39 1
    42   18   40 1
    43   20   41 1
    44   20   42 1
    45   24   43 1
    46   25   44 1
@<TRIPOS>SUBSTRUCTURE
     1 SAH         1 GROUP   0 A     ****
@<TRIPOS>MOLECULE
4-[[5-(6-aminopurin-9-yl)-3,4-dihydroxy-tetrahydrofuran-2-yl]methylsulfanyl]-2-azaniumyl-butanoate
   46    48     1     0     0
SMALL
USER_CHARGES

@<TRIPOS>ATOM
      1 C2         -6.6940    6.3660   17.5220 C.ar      1 SAH         0.6912
      2 C8         -2.4550    5.6770   18.2020 C.ar      1 SAH         0.5263
      3 C5         -4.1920    5.7280   16.9550 C.ar      1 SAH        -0.2376
      4 C4         -4.5990    6.2900   18.1330 C.ar      1 SAH         0.6100
      5 C6         -5.1660    5.6140   15.9680 C.ar      1 SAH         0.7616
      6 C          -4.7190   12.6510   26.2500 C.2       1 SAH         0.9390
      7 C3'        -2.7810    6.5900   22.6150 C.3       1 SAH         0.0771
      8 C2'        -3.0230    5.6880   21.3550 C.3       1 SAH         0.1240
      9 C4'        -2.5480    8.0170   21.8880 C.3       1 SAH         0.1243
     10 C1'        -3.4830    6.7390   20.3130 C.3       1 SAH         0.4065
     11 C5'        -1.2660    8.7480   22.1870 C.3       1 SAH        -0.0493
     12 CB         -2.9430   11.1320   25.1840 C.3       1 SAH        -0.0865
     13 CG         -2.4920   10.4960   23.8630 C.3       1 SAH        -0.0238
     14 CA         -4.2000   11.9820   24.9600 C.3       1 SAH        -0.0765
     15 N3         -5.8590    6.6230   18.5010 N.ar      1 SAH        -0.7336
     16 N1         -6.4250    5.9470   16.3060 N.ar      1 SAH        -0.7931
     17 N7         -2.8580    5.2660   17.0360 N.ar      1 SAH        -0.5399
     18 N9         -3.4680    6.3410   18.9140 N.pl3     1 SAH        -0.6925
     19 N6         -4.8690    5.1060   14.7690 N.pl3     1 SAH        -0.9572
     20 N          -3.9390   12.9490   23.9010 N.4       1 SAH        -0.8368
     21 OXT        -4.5570   12.0620   27.3540 O.co2     1 SAH        -0.7505
     22 O          -5.6170   13.5130   26.0830 O.co2     1 SAH        -0.7505
     23 O4'        -2.5910    7.8390   20.4400 O.3       1 SAH        -0.4146
     24 O3'        -3.8780    6.6110   23.5890 O.3       1 SAH        -0.5988
     25 O2'        -3.9020    4.5270   21.4480 O.3       1 SAH        -0.5693
     26 SD         -1.1570    9.2870   23.8890 S.3       1 SAH        -0.2725
     27 H2         -7.7533    6.5214   17.7474 H         1 SAH         0.0535
     28 H8         -1.4704    5.5518   18.6283 H         1 SAH         0.0629
     29 H3'        -1.8566    6.2697   23.1635 H         1 SAH         0.0766
     30 H2'        -2.0058    5.2899   21.0216 H         1 SAH         0.0709
     31 H4'        -3.4147    8.6986   22.1284 H         1 SAH         0.0980
     32 H1'        -4.5210    7.1029   20.5137 H         1 SAH         0.1289
     33 H5'1       -1.1758    9.6269   21.5197 H         1 SAH         0.0737
     34 H5'2       -0.4035    8.0934   21.9561 H         1 SAH         0.0737
     35 HB1        -2.1529   11.7600   25.5737 H         1 SAH         0.1016
     36 HB2        -3.1589   10.3608   25.9103 H         1 SAH         0.1016
     37 HG1        -2.1940   11.3108   23.1317 H         1 SAH         0.0503
     38 HG2        -3.3825   10.0158   23.3476 H         1 SAH         0.0503
     39 HA         -5.0027   11.3452   24.6175 H         1 SAH         0.0907
     40 HN61       -4.0842    5.4678   14.2610 H         1 SAH         0.4477
     41 HN62       -5.4872    4.4370   14.3505 H         1 SAH         0.4477
     42 HN1        -3.7761   12.4681   23.0154 H         1 SAH         0.4444
     43 HN2        -3.1137   13.5060   24.1272 H         1 SAH         0.4444
     44 H46        -4.7369   13.5763   23.7907 H         1 SAH         0.4444
     45 HO3'       -4.5033    5.9247   23.3115 H         1 SAH         0.4279
     46 HO2'       -4.4178    4.4889   20.6234 H         1 SAH         0.4340
@<TRIPOS>BOND
     1    1   15 ar
     2    1   16 ar
     3    2   17 ar
     4    2   18 ar
     5    3    4 ar
     6    3    5 ar
     7    3   17 ar
     8    4   15 ar
     9    4   18 ar
    10    5   16 ar
    11    5   19 1
    12    6   14 1
    13    6   21 1
    14    6   22 2
    15    7    8 1
    16    7    9 1
    17    7   24 1
    18    8   10 1
    19    8   25 1
    20    9   11 1
    21    9   23 1
    22   10   18 1
    23   10   23 1
    24   11   26 1
    25   12   13 1
    26   12   14 1
    27   13   26 1
    28   14   20 1
    29    1   27 1
    30    2   28 1
    31    7   29 1
    32    8   30 1
    33    9   31 1
    34   10   32 1
    35   11   33 1
    36   11   34 1
    37   12   35 1
    38   12   36 1
    39   13   37 1
    40   13   38 1
    41   14   39 1
    42   19   40 1
    43   19   41 1
    44   20   42 1
    45   20   43 1
    46   20   44 1
    47   24   45 1
    48   25   46 1
@<TRIPOS>SUBSTRUCTURE
     1 SAH         1 GROUP   0 A     ****
