@<TRIPOS>MOLECULE
SAH
   46    48     1     0     0
SMALL
NO_CHARGES

@<TRIPOS>ATOM
      1  N         -3.9390   12.9490   23.9010 N.3       1 SAH         0.0000
      2  CA        -4.2000   11.9820   24.9600 C.3       1 SAH         0.0000
      3  CB        -2.9430   11.1320   25.1840 C.3       1 SAH         0.0000
      4  CG        -2.4920   10.4960   23.8630 C.3       1 SAH         0.0000
      5  SD        -1.1570    9.2870   23.8890 S.3       1 SAH         0.0000
      6  C         -4.7190   12.6510   26.2500 C.2       1 SAH         0.0000
      7  O         -5.6170   13.5130   26.0830 O.2       1 SAH         0.0000
      8  OXT       -4.5570   12.0620   27.3540 O.3       1 SAH         0.0000
      9  C5'       -1.2660    8.7480   22.1870 C.3       1 SAH         0.0000
     10  C4'       -2.5480    8.0170   21.8880 C.3       1 SAH         0.0000
     11  O4'       -2.5910    7.8390   20.4400 O.3       1 SAH         0.0000
     12  C3'       -2.7810    6.5900   22.6150 C.3       1 SAH         0.0000
     13  O3'       -3.8780    6.6110   23.5890 O.3       1 SAH         0.0000
     14  C2'       -3.0230    5.6880   21.3550 C.3       1 SAH         0.0000
     15  O2'       -3.9020    4.5270   21.4480 O.3       1 SAH         0.0000
     16  C1'       -3.4830    6.7390   20.3130 C.3       1 SAH         0.0000
     17  N9        -3.4680    6.3410   18.9140 N.pl3     1 SAH         0.0000
     18  C8        -2.4550    5.6770   18.2020 C.ar      1 SAH         0.0000
     19  N7        -2.8580    5.2660   17.0360 N.ar      1 SAH         0.0000
     20  C5        -4.1920    5.7280   16.9550 C.ar      1 SAH         0.0000
     21  C6        -5.1660    5.6140   15.9680 C.ar      1 SAH         0.0000
     22  N6        -4.8690    5.1060   14.7690 N.pl3     1 SAH         0.0000
     23  N1        -6.4250    5.9470   16.3060 N.ar      1 SAH         0.0000
     24  C2        -6.6940    6.3660   17.5220 C.ar      1 SAH         0.0000
     25  N3        -5.8590    6.6230   18.5010 N.ar      1 SAH         0.0000
     26  C4        -4.5990    6.2900   18.1330 C.ar      1 SAH         0.0000
     27  HN1       -4.7740   13.5140   23.7520 H         1 SAH         0.0000
     28  HN2       -3.6120   12.5050   23.0420 H         1 SAH         0.0000
     29  HA        -5.0260   11.3040   24.6410 H         1 SAH         0.0000
     30  HB1       -2.1240   11.7160   25.6650 H         1 SAH         0.0000
     31  HB2       -3.0920   10.3690   25.9830 H         1 SAH         0.0000
     32  HG1       -3.3780   10.0420   23.3610 H         1 SAH         0.0000
     33  HG2       -2.2280   11.3070   23.1450 H         1 SAH         0.0000
     34  HXT       -4.8760   12.4730   28.1480 H         1 SAH         0.0000
     35 H5'1       -1.1210    9.6030   21.4860 H         1 SAH         0.0000
     36 H5'2       -0.3800    8.1320   21.9050 H         1 SAH         0.0000
     37  H4'       -3.3690    8.6440   22.3050 H         1 SAH         0.0000
     38  H3'       -1.9450    6.2360   23.2630 H         1 SAH         0.0000
     39 HO3'       -4.0140    5.7730   24.0150 H         1 SAH         0.0000
     40  H2'       -2.0950    5.1180   21.1120 H         1 SAH         0.0000
     41 HO2'       -4.0480    3.9800   20.6840 H         1 SAH         0.0000
     42  H1'       -4.5540    6.9430   20.5420 H         1 SAH         0.0000
     43  H8        -1.4190    5.4920   18.5340 H         1 SAH         0.0000
     44 HN61       -5.5830    5.0220   14.0450 H         1 SAH         0.0000
     45 HN62       -4.4480    4.1870   14.9080 H         1 SAH         0.0000
     46  H2        -7.7610    6.5220   17.7510 H         1 SAH         0.0000
@<TRIPOS>BOND
     1    1    2 1
     2    1   27 1
     3    1   28 1
     4    2    3 1
     5    2    6 1
     6    2   29 1
     7    3    4 1
     8    3   30 1
     9    3   31 1
    10    4    5 1
    11    4   32 1
    12    4   33 1
    13    5    9 1
    14    6    7 2
    15    6    8 1
    16    8   34 1
    17    9   10 1
    18    9   35 1
    19    9   36 1
    20   10   11 1
    21   10   12 1
    22   10   37 1
    23   11   16 1
    24   12   13 1
    25   12   14 1
    26   12   38 1
    27   13   39 1
    28   14   15 1
    29   14   16 1
    30   14   40 1
    31   15   41 1
    32   16   17 1
    33   16   42 1
    34   17   18 ar
    35   17   26 ar
    36   18   19 ar
    37   18   43 1
    38   19   20 ar
    39   20   21 ar
    40   20   26 ar
    41   21   22 1
    42   21   23 ar
    43   22   44 1
    44   22   45 1
    45   23   24 ar
    46   24   25 ar
    47   24   46 1
    48   25   26 ar
@<TRIPOS>SUBSTRUCTURE
     1 SAH         1 GROUP 0 A     ****
