SAH
                    3D
 Structure written by MMmdl.
 45 47  0  0  1  0            999 V2000
   -6.6940    6.3660   17.5220 C   0  0  0  0  0  0
   -2.4550    5.6770   18.2020 C   0  0  0  0  0  0
   -4.1920    5.7280   16.9550 C   0  0  0  0  0  0
   -4.5990    6.2900   18.1330 C   0  0  0  0  0  0
   -5.1660    5.6140   15.9680 C   0  0  0  0  0  0
   -4.7190   12.6510   26.2500 C   0  0  0  0  0  0
   -2.7810    6.5900   22.6150 C   0  0  1  0  0  0
   -3.0230    5.6880   21.3550 C   0  0  2  0  0  0
   -2.5480    8.0170   21.8880 C   0  0  1  0  0  0
   -3.4830    6.7390   20.3130 C   0  0  2  0  0  0
   -1.2660    8.7480   22.1870 C   0  0  0  0  0  0
   -2.9430   11.1320   25.1840 C   0  0  0  0  0  0
   -2.4920   10.4960   23.8630 C   0  0  0  0  0  0
   -4.2000   11.9820   24.9600 C   0  0  2  0  0  0
   -5.8590    6.6230   18.5010 N   0  0  0  0  0  0
   -6.4250    5.9470   16.3060 N   0  0  0  0  0  0
   -2.8580    5.2660   17.0360 N   0  0  0  0  0  0
   -3.4680    6.3410   18.9140 N   0  0  0  0  0  0
   -4.8690    5.1060   14.7690 N   0  0  0  0  0  0
   -3.9390   12.9490   23.9010 N   0  0  0  0  0  0
   -5.6170   13.5130   26.0830 O   0  0  0  0  0  0
   -2.5910    7.8390   20.4400 O   0  0  0  0  0  0
   -4.5570   12.0620   27.3540 O   0  6  0  0  0  0
   -3.8780    6.6110   23.5890 O   0  0  0  0  0  0
   -3.9020    4.5270   21.4480 O   0  0  0  0  0  0
   -1.1570    9.2870   23.8890 S   0  0  0  0  0  0
   -7.7533    6.5214   17.7474 H   0  0  0  0  0  0
   -1.4704    5.5518   18.6283 H   0  0  0  0  0  0
   -2.0188    6.2137   23.3131 H   0  0  0  0  0  0
   -2.1538    5.0605   21.1086 H   0  0  0  0  0  0
   -3.3396    8.7048   22.2201 H   0  0  0  0  0  0
   -4.5349    7.0076   20.4900 H   0  0  0  0  0  0
   -0.4110    8.0848   21.9890 H   0  0  0  0  0  0
   -1.1944    9.6396   21.5468 H   0  0  0  0  0  0
   -3.1687   10.3405   25.9138 H   0  0  0  0  0  0
   -2.1395   11.7733   25.5754 H   0  0  0  0  0  0
   -3.3384    9.9635   23.4047 H   0  0  0  0  0  0
   -2.1397   11.2821   23.1790 H   0  0  0  0  0  0
   -5.0139   11.3416   24.5893 H   0  0  0  0  0  0
   -3.8288    4.8443   14.5248 H   0  0  0  0  0  0
   -5.6646    4.9493   14.0257 H   0  0  0  0  0  0
   -3.1283   13.6241   24.2126 H   0  0  0  0  0  0
   -3.6421   12.4179   22.9846 H   0  0  0  0  0  0
   -4.1338    5.6995   24.1491 H   0  0  0  0  0  0
   -3.6711    3.7177   22.1563 H   0  0  0  0  0  0
  1 15  2  0  0  0
  1 16  1  0  0  0
  1 27  1  0  0  0
  2 17  2  0  0  0
  2 18  1  0  0  0
  2 28  1  0  0  0
  3  4  2  0  0  0
  3  5  1  0  0  0
  3 17  1  0  0  0
  4 15  1  0  0  0
  4 18  1  0  0  0
  5 16  2  0  0  0
  5 19  1  0  0  0
  6 14  1  0  0  0
  6 21  2  0  0  0
  6 23  1  0  0  0
  7  8  1  0  0  0
  7  9  1  0  0  0
  7 24  1  0  0  0
  7 29  1  0  0  0
  8 10  1  0  0  0
  8 25  1  0  0  0
  8 30  1  0  0  0
  9 11  1  0  0  0
  9 22  1  0  0  0
  9 31  1  0  0  0
 10 18  1  0  0  0
 10 22  1  0  0  0
 10 32  1  0  0  0
 11 26  1  0  0  0
 11 33  1  0  0  0
 11 34  1  0  0  0
 12 13  1  0  0  0
 12 14  1  0  0  0
 12 35  1  0  0  0
 12 36  1  0  0  0
 13 26  1  0  0  0
 13 37  1  0  0  0
 13 38  1  0  0  0
 14 20  1  0  0  0
 14 39  1  0  0  0
 19 40  1  0  0  0
 19 41  1  0  0  0
 20 42  1  0  0  0
 20 43  1  0  0  0
 24 44  1  0  0  0
 25 45  1  0  0  0
M  CHG  1  23  -2
M  END
> <s_m_source_file>
C:\Users\rustenba\GitHub\Epik-Ligands\Results\InProgress\S-ADENOSYL-L-HOMOCYSTEINE\pH_10.0\S-ADENOSYL-L-HOMOCYSTEINE_pH_10.0-before_epik.mol2

> <i_m_source_file_index>
1

> <r_lp_tautomer_probability>
0.999997216410988

> <r_epik_Ionization_Penalty>
  0.0051

> <r_epik_Ionization_Penalty_Charging>
  0.0000

> <r_epik_Ionization_Penalty_Neutral>
  0.0051

> <r_epik_State_Penalty>
  0.0034

> <r_epik_Charging_Adjusted_Penalty>
0.00342397554180144

> <i_epik_Tot_Q>
-2

> <i_epik_Tot_abs_Q>
2

> <s_epik_Chemistry_Notes>
This compound contains an acetal/aminal-like group ( X-CH(R)-Y where X, Y are N, S, or O) that may be acid/base labile, releasing an aldehyde.

$$$$
SAH
                    3D
 Structure written by MMmdl.
 44 46  0  0  1  0            999 V2000
   -6.6940    6.3660   17.5220 C   0  0  0  0  0  0
   -2.4550    5.6770   18.2020 C   0  0  0  0  0  0
   -4.1920    5.7280   16.9550 C   0  0  0  0  0  0
   -4.5990    6.2900   18.1330 C   0  0  0  0  0  0
   -5.1660    5.6140   15.9680 C   0  0  0  0  0  0
   -4.7190   12.6510   26.2500 C   0  0  0  0  0  0
   -2.7810    6.5900   22.6150 C   0  0  1  0  0  0
   -3.0230    5.6880   21.3550 C   0  0  2  0  0  0
   -2.5480    8.0170   21.8880 C   0  0  1  0  0  0
   -3.4830    6.7390   20.3130 C   0  0  2  0  0  0
   -1.2660    8.7480   22.1870 C   0  0  0  0  0  0
   -2.9430   11.1320   25.1840 C   0  0  0  0  0  0
   -2.4920   10.4960   23.8630 C   0  0  0  0  0  0
   -4.2000   11.9820   24.9600 C   0  0  2  0  0  0
   -5.8590    6.6230   18.5010 N   0  0  0  0  0  0
   -6.4250    5.9470   16.3060 N   0  0  0  0  0  0
   -2.8580    5.2660   17.0360 N   0  0  0  0  0  0
   -3.4680    6.3410   18.9140 N   0  0  0  0  0  0
   -4.8690    5.1060   14.7690 N   0  0  0  0  0  0
   -3.9390   12.9490   23.9010 N   0  0  0  0  0  0
   -5.6170   13.5130   26.0830 O   0  0  0  0  0  0
   -2.5910    7.8390   20.4400 O   0  0  0  0  0  0
   -4.5570   12.0620   27.3540 O   0  6  0  0  0  0
   -3.8780    6.6110   23.5890 O   0  0  0  0  0  0
   -3.9020    4.5270   21.4480 O   0  5  0  0  0  0
   -1.1570    9.2870   23.8890 S   0  0  0  0  0  0
   -7.7533    6.5214   17.7474 H   0  0  0  0  0  0
   -1.4704    5.5518   18.6283 H   0  0  0  0  0  0
   -2.0188    6.2137   23.3131 H   0  0  0  0  0  0
   -2.1538    5.0605   21.1086 H   0  0  0  0  0  0
   -3.3396    8.7048   22.2201 H   0  0  0  0  0  0
   -4.5349    7.0076   20.4900 H   0  0  0  0  0  0
   -0.4110    8.0848   21.9890 H   0  0  0  0  0  0
   -1.1944    9.6396   21.5468 H   0  0  0  0  0  0
   -3.1687   10.3405   25.9138 H   0  0  0  0  0  0
   -2.1395   11.7733   25.5754 H   0  0  0  0  0  0
   -3.3384    9.9635   23.4047 H   0  0  0  0  0  0
   -2.1397   11.2821   23.1790 H   0  0  0  0  0  0
   -5.0139   11.3416   24.5893 H   0  0  0  0  0  0
   -3.8288    4.8443   14.5248 H   0  0  0  0  0  0
   -5.6646    4.9493   14.0257 H   0  0  0  0  0  0
   -3.1283   13.6241   24.2126 H   0  0  0  0  0  0
   -3.6421   12.4179   22.9846 H   0  0  0  0  0  0
   -4.1338    5.6995   24.1491 H   0  0  0  0  0  0
  1 15  2  0  0  0
  1 16  1  0  0  0
  1 27  1  0  0  0
  2 17  2  0  0  0
  2 18  1  0  0  0
  2 28  1  0  0  0
  3  4  2  0  0  0
  3  5  1  0  0  0
  3 17  1  0  0  0
  4 15  1  0  0  0
  4 18  1  0  0  0
  5 16  2  0  0  0
  5 19  1  0  0  0
  6 14  1  0  0  0
  6 21  2  0  0  0
  6 23  1  0  0  0
  7  8  1  0  0  0
  7  9  1  0  0  0
  7 24  1  0  0  0
  7 29  1  0  0  0
  8 10  1  0  0  0
  8 25  1  0  0  0
  8 30  1  0  0  0
  9 11  1  0  0  0
  9 22  1  0  0  0
  9 31  1  0  0  0
 10 18  1  0  0  0
 10 22  1  0  0  0
 10 32  1  0  0  0
 11 26  1  0  0  0
 11 33  1  0  0  0
 11 34  1  0  0  0
 12 13  1  0  0  0
 12 14  1  0  0  0
 12 35  1  0  0  0
 12 36  1  0  0  0
 13 26  1  0  0  0
 13 37  1  0  0  0
 13 38  1  0  0  0
 14 20  1  0  0  0
 14 39  1  0  0  0
 19 40  1  0  0  0
 19 41  1  0  0  0
 20 42  1  0  0  0
 20 43  1  0  0  0
 24 44  1  0  0  0
M  CHG  2  23  -2  25  -1
M  END
> <s_m_source_file>
C:\Users\rustenba\GitHub\Epik-Ligands\Results\InProgress\S-ADENOSYL-L-HOMOCYSTEINE\pH_10.0\S-ADENOSYL-L-HOMOCYSTEINE_pH_10.0-before_epik.mol2

> <i_m_source_file_index>
1

> <r_lp_tautomer_probability>
0.999997216410988

> <r_epik_Ionization_Penalty>
  3.1253

> <r_epik_Ionization_Penalty_Charging>
  3.1243

> <r_epik_Ionization_Penalty_Neutral>
  0.0010

> <r_epik_State_Penalty>
  3.3341

> <r_epik_Charging_Adjusted_Penalty>
6.4583542121154

> <i_epik_Tot_Q>
-3

> <i_epik_Tot_abs_Q>
3

> <s_epik_Chemistry_Notes>
This compound contains an acetal/aminal-like group ( X-CH(R)-Y where X, Y are N, S, or O) that may be acid/base labile, releasing an aldehyde.

$$$$
SAH
                    3D
 Structure written by MMmdl.
 44 46  0  0  1  0            999 V2000
   -6.6940    6.3660   17.5220 C   0  0  0  0  0  0
   -2.4550    5.6770   18.2020 C   0  0  0  0  0  0
   -4.1920    5.7280   16.9550 C   0  0  0  0  0  0
   -4.5990    6.2900   18.1330 C   0  0  0  0  0  0
   -5.1660    5.6140   15.9680 C   0  0  0  0  0  0
   -4.7190   12.6510   26.2500 C   0  0  0  0  0  0
   -2.7810    6.5900   22.6150 C   0  0  1  0  0  0
   -3.0230    5.6880   21.3550 C   0  0  2  0  0  0
   -2.5480    8.0170   21.8880 C   0  0  1  0  0  0
   -3.4830    6.7390   20.3130 C   0  0  2  0  0  0
   -1.2660    8.7480   22.1870 C   0  0  0  0  0  0
   -2.9430   11.1320   25.1840 C   0  0  0  0  0  0
   -2.4920   10.4960   23.8630 C   0  0  0  0  0  0
   -4.2000   11.9820   24.9600 C   0  0  2  0  0  0
   -5.8590    6.6230   18.5010 N   0  0  0  0  0  0
   -6.4250    5.9470   16.3060 N   0  0  0  0  0  0
   -2.8580    5.2660   17.0360 N   0  0  0  0  0  0
   -3.4680    6.3410   18.9140 N   0  0  0  0  0  0
   -4.8690    5.1060   14.7690 N   0  0  0  0  0  0
   -3.9390   12.9490   23.9010 N   0  0  0  0  0  0
   -5.6170   13.5130   26.0830 O   0  0  0  0  0  0
   -2.5910    7.8390   20.4400 O   0  0  0  0  0  0
   -4.5570   12.0620   27.3540 O   0  6  0  0  0  0
   -3.8780    6.6110   23.5890 O   0  5  0  0  0  0
   -3.9020    4.5270   21.4480 O   0  0  0  0  0  0
   -1.1570    9.2870   23.8890 S   0  0  0  0  0  0
   -7.7533    6.5214   17.7474 H   0  0  0  0  0  0
   -1.4704    5.5518   18.6283 H   0  0  0  0  0  0
   -2.0188    6.2137   23.3131 H   0  0  0  0  0  0
   -2.1538    5.0605   21.1086 H   0  0  0  0  0  0
   -3.3396    8.7048   22.2201 H   0  0  0  0  0  0
   -4.5349    7.0076   20.4900 H   0  0  0  0  0  0
   -0.4110    8.0848   21.9890 H   0  0  0  0  0  0
   -1.1944    9.6396   21.5468 H   0  0  0  0  0  0
   -3.1687   10.3405   25.9138 H   0  0  0  0  0  0
   -2.1395   11.7733   25.5754 H   0  0  0  0  0  0
   -3.3384    9.9635   23.4047 H   0  0  0  0  0  0
   -2.1397   11.2821   23.1790 H   0  0  0  0  0  0
   -5.0139   11.3416   24.5893 H   0  0  0  0  0  0
   -3.8288    4.8443   14.5248 H   0  0  0  0  0  0
   -5.6646    4.9493   14.0257 H   0  0  0  0  0  0
   -3.1283   13.6241   24.2126 H   0  0  0  0  0  0
   -3.6421   12.4179   22.9846 H   0  0  0  0  0  0
   -3.6711    3.7177   22.1563 H   0  0  0  0  0  0
  1 15  2  0  0  0
  1 16  1  0  0  0
  1 27  1  0  0  0
  2 17  2  0  0  0
  2 18  1  0  0  0
  2 28  1  0  0  0
  3  4  2  0  0  0
  3  5  1  0  0  0
  3 17  1  0  0  0
  4 15  1  0  0  0
  4 18  1  0  0  0
  5 16  2  0  0  0
  5 19  1  0  0  0
  6 14  1  0  0  0
  6 21  2  0  0  0
  6 23  1  0  0  0
  7  8  1  0  0  0
  7  9  1  0  0  0
  7 24  1  0  0  0
  7 29  1  0  0  0
  8 10  1  0  0  0
  8 25  1  0  0  0
  8 30  1  0  0  0
  9 11  1  0  0  0
  9 22  1  0  0  0
  9 31  1  0  0  0
 10 18  1  0  0  0
 10 22  1  0  0  0
 10 32  1  0  0  0
 11 26  1  0  0  0
 11 33  1  0  0  0
 11 34  1  0  0  0
 12 13  1  0  0  0
 12 14  1  0  0  0
 12 35  1  0  0  0
 12 36  1  0  0  0
 13 26  1  0  0  0
 13 37  1  0  0  0
 13 38  1  0  0  0
 14 20  1  0  0  0
 14 39  1  0  0  0
 19 40  1  0  0  0
 19 41  1  0  0  0
 20 42  1  0  0  0
 20 43  1  0  0  0
 25 44  1  0  0  0
M  CHG  2  23  -2  24  -1
M  END
> <s_m_source_file>
C:\Users\rustenba\GitHub\Epik-Ligands\Results\InProgress\S-ADENOSYL-L-HOMOCYSTEINE\pH_10.0\S-ADENOSYL-L-HOMOCYSTEINE_pH_10.0-before_epik.mol2

> <i_m_source_file_index>
1

> <r_epik_Ionization_Penalty>
  3.8220

> <r_epik_Ionization_Penalty_Charging>
  3.8209

> <r_epik_Ionization_Penalty_Neutral>
  0.0011

> <r_epik_State_Penalty>
  4.0797

> <r_epik_Charging_Adjusted_Penalty>
7.90057807890235

> <i_epik_Tot_Q>
-3

> <i_epik_Tot_abs_Q>
3

> <s_epik_Chemistry_Notes>
This compound contains an acetal/aminal-like group ( X-CH(R)-Y where X, Y are N, S, or O) that may be acid/base labile, releasing an aldehyde.

$$$$
SAH
                    3D
 Structure written by MMmdl.
 44 46  0  0  1  0            999 V2000
   -6.6940    6.3660   17.5220 C   0  0  0  0  0  0
   -2.4550    5.6770   18.2020 C   0  0  0  0  0  0
   -4.1920    5.7280   16.9550 C   0  0  0  0  0  0
   -4.5990    6.2900   18.1330 C   0  0  0  0  0  0
   -5.1660    5.6140   15.9680 C   0  0  0  0  0  0
   -4.7190   12.6510   26.2500 C   0  0  0  0  0  0
   -2.7810    6.5900   22.6150 C   0  0  1  0  0  0
   -3.0230    5.6880   21.3550 C   0  0  2  0  0  0
   -2.5480    8.0170   21.8880 C   0  0  1  0  0  0
   -3.4830    6.7390   20.3130 C   0  0  2  0  0  0
   -1.2660    8.7480   22.1870 C   0  0  0  0  0  0
   -2.9430   11.1320   25.1840 C   0  0  0  0  0  0
   -2.4920   10.4960   23.8630 C   0  0  0  0  0  0
   -4.2000   11.9820   24.9600 C   0  0  2  0  0  0
   -5.8590    6.6230   18.5010 N   0  0  0  0  0  0
   -6.4250    5.9470   16.3060 N   0  0  0  0  0  0
   -2.8580    5.2660   17.0360 N   0  0  0  0  0  0
   -3.4680    6.3410   18.9140 N   0  0  0  0  0  0
   -4.8690    5.1060   14.7690 N   0  5  0  0  0  0
   -3.9390   12.9490   23.9010 N   0  0  0  0  0  0
   -5.6170   13.5130   26.0830 O   0  0  0  0  0  0
   -2.5910    7.8390   20.4400 O   0  0  0  0  0  0
   -4.5570   12.0620   27.3540 O   0  6  0  0  0  0
   -3.8780    6.6110   23.5890 O   0  0  0  0  0  0
   -3.9020    4.5270   21.4480 O   0  0  0  0  0  0
   -1.1570    9.2870   23.8890 S   0  0  0  0  0  0
   -7.7533    6.5214   17.7474 H   0  0  0  0  0  0
   -1.4704    5.5518   18.6283 H   0  0  0  0  0  0
   -2.0188    6.2137   23.3131 H   0  0  0  0  0  0
   -2.1538    5.0605   21.1086 H   0  0  0  0  0  0
   -3.3396    8.7048   22.2201 H   0  0  0  0  0  0
   -4.5349    7.0076   20.4900 H   0  0  0  0  0  0
   -0.4110    8.0848   21.9890 H   0  0  0  0  0  0
   -1.1944    9.6396   21.5468 H   0  0  0  0  0  0
   -3.1687   10.3405   25.9138 H   0  0  0  0  0  0
   -2.1395   11.7733   25.5754 H   0  0  0  0  0  0
   -3.3384    9.9635   23.4047 H   0  0  0  0  0  0
   -2.1397   11.2821   23.1790 H   0  0  0  0  0  0
   -5.0139   11.3416   24.5893 H   0  0  0  0  0  0
   -3.8288    4.8443   14.5248 H   0  0  0  0  0  0
   -3.1283   13.6241   24.2126 H   0  0  0  0  0  0
   -3.6421   12.4179   22.9846 H   0  0  0  0  0  0
   -4.1338    5.6995   24.1491 H   0  0  0  0  0  0
   -3.6711    3.7177   22.1563 H   0  0  0  0  0  0
  1 15  2  0  0  0
  1 16  1  0  0  0
  1 27  1  0  0  0
  2 17  2  0  0  0
  2 18  1  0  0  0
  2 28  1  0  0  0
  3  4  2  0  0  0
  3  5  1  0  0  0
  3 17  1  0  0  0
  4 15  1  0  0  0
  4 18  1  0  0  0
  5 16  2  0  0  0
  5 19  1  0  0  0
  6 14  1  0  0  0
  6 21  2  0  0  0
  6 23  1  0  0  0
  7  8  1  0  0  0
  7  9  1  0  0  0
  7 24  1  0  0  0
  7 29  1  0  0  0
  8 10  1  0  0  0
  8 25  1  0  0  0
  8 30  1  0  0  0
  9 11  1  0  0  0
  9 22  1  0  0  0
  9 31  1  0  0  0
 10 18  1  0  0  0
 10 22  1  0  0  0
 10 32  1  0  0  0
 11 26  1  0  0  0
 11 33  1  0  0  0
 11 34  1  0  0  0
 12 13  1  0  0  0
 12 14  1  0  0  0
 12 35  1  0  0  0
 12 36  1  0  0  0
 13 26  1  0  0  0
 13 37  1  0  0  0
 13 38  1  0  0  0
 14 20  1  0  0  0
 14 39  1  0  0  0
 19 40  1  0  0  0
 20 41  1  0  0  0
 20 42  1  0  0  0
 24 43  1  0  0  0
 25 44  1  0  0  0
M  CHG  2  19  -1  23  -2
M  END
> <s_m_source_file>
C:\Users\rustenba\GitHub\Epik-Ligands\Results\InProgress\S-ADENOSYL-L-HOMOCYSTEINE\pH_10.0\S-ADENOSYL-L-HOMOCYSTEINE_pH_10.0-before_epik.mol2

> <i_m_source_file_index>
1

> <r_epik_Ionization_Penalty>
  4.1395

> <r_epik_Ionization_Penalty_Charging>
  4.1349

> <r_epik_Ionization_Penalty_Neutral>
  0.0046

> <r_epik_State_Penalty>
  4.4151

> <r_epik_Charging_Adjusted_Penalty>
8.55002796500605

> <i_epik_Tot_Q>
-3

> <i_epik_Tot_abs_Q>
3

> <s_epik_Chemistry_Notes>
This compound contains an acetal/aminal-like group ( X-CH(R)-Y where X, Y are N, S, or O) that may be acid/base labile, releasing an aldehyde.

$$$$
SAH
                    3D
 Structure written by MMmdl.
 46 48  0  0  1  0            999 V2000
   -6.6940    6.3660   17.5220 C   0  0  0  0  0  0
   -2.4550    5.6770   18.2020 C   0  0  0  0  0  0
   -4.1920    5.7280   16.9550 C   0  0  0  0  0  0
   -4.5990    6.2900   18.1330 C   0  0  0  0  0  0
   -5.1660    5.6140   15.9680 C   0  0  0  0  0  0
   -4.7190   12.6510   26.2500 C   0  0  0  0  0  0
   -2.7810    6.5900   22.6150 C   0  0  1  0  0  0
   -3.0230    5.6880   21.3550 C   0  0  2  0  0  0
   -2.5480    8.0170   21.8880 C   0  0  1  0  0  0
   -3.4830    6.7390   20.3130 C   0  0  2  0  0  0
   -1.2660    8.7480   22.1870 C   0  0  0  0  0  0
   -2.9430   11.1320   25.1840 C   0  0  0  0  0  0
   -2.4920   10.4960   23.8630 C   0  0  0  0  0  0
   -4.2000   11.9820   24.9600 C   0  0  2  0  0  0
   -5.8590    6.6230   18.5010 N   0  0  0  0  0  0
   -6.4250    5.9470   16.3060 N   0  0  0  0  0  0
   -2.8580    5.2660   17.0360 N   0  0  0  0  0  0
   -3.4680    6.3410   18.9140 N   0  0  0  0  0  0
   -4.8690    5.1060   14.7690 N   0  0  0  0  0  0
   -3.9390   12.9490   23.9010 N   0  3  0  0  0  0
   -5.6170   13.5130   26.0830 O   0  0  0  0  0  0
   -2.5910    7.8390   20.4400 O   0  0  0  0  0  0
   -4.5570   12.0620   27.3540 O   0  6  0  0  0  0
   -3.8780    6.6110   23.5890 O   0  0  0  0  0  0
   -3.9020    4.5270   21.4480 O   0  0  0  0  0  0
   -1.1570    9.2870   23.8890 S   0  0  0  0  0  0
   -7.7533    6.5214   17.7474 H   0  0  0  0  0  0
   -1.4704    5.5518   18.6283 H   0  0  0  0  0  0
   -2.0188    6.2137   23.3131 H   0  0  0  0  0  0
   -2.1538    5.0605   21.1086 H   0  0  0  0  0  0
   -3.3396    8.7048   22.2201 H   0  0  0  0  0  0
   -4.5349    7.0076   20.4900 H   0  0  0  0  0  0
   -0.4110    8.0848   21.9890 H   0  0  0  0  0  0
   -1.1944    9.6396   21.5468 H   0  0  0  0  0  0
   -3.1687   10.3405   25.9138 H   0  0  0  0  0  0
   -2.1395   11.7733   25.5754 H   0  0  0  0  0  0
   -3.3384    9.9635   23.4047 H   0  0  0  0  0  0
   -2.1397   11.2821   23.1790 H   0  0  0  0  0  0
   -5.0139   11.3416   24.5893 H   0  0  0  0  0  0
   -3.8288    4.8443   14.5248 H   0  0  0  0  0  0
   -5.6646    4.9493   14.0257 H   0  0  0  0  0  0
   -4.8369   13.5623   23.7351 H   0  0  0  0  0  0
   -3.6821   12.4165   22.9734 H   0  0  0  0  0  0
   -4.1338    5.6995   24.1491 H   0  0  0  0  0  0
   -3.6711    3.7177   22.1563 H   0  0  0  0  0  0
   -3.1010   13.5979   24.1954 H   0  0  0  0  0  0
  1 15  2  0  0  0
  1 16  1  0  0  0
  1 27  1  0  0  0
  2 17  2  0  0  0
  2 18  1  0  0  0
  2 28  1  0  0  0
  3  4  2  0  0  0
  3  5  1  0  0  0
  3 17  1  0  0  0
  4 15  1  0  0  0
  4 18  1  0  0  0
  5 16  2  0  0  0
  5 19  1  0  0  0
  6 14  1  0  0  0
  6 21  2  0  0  0
  6 23  1  0  0  0
  7  8  1  0  0  0
  7  9  1  0  0  0
  7 24  1  0  0  0
  7 29  1  0  0  0
  8 10  1  0  0  0
  8 25  1  0  0  0
  8 30  1  0  0  0
  9 11  1  0  0  0
  9 22  1  0  0  0
  9 31  1  0  0  0
 10 18  1  0  0  0
 10 22  1  0  0  0
 10 32  1  0  0  0
 11 26  1  0  0  0
 11 33  1  0  0  0
 11 34  1  0  0  0
 12 13  1  0  0  0
 12 14  1  0  0  0
 12 35  1  0  0  0
 12 36  1  0  0  0
 13 26  1  0  0  0
 13 37  1  0  0  0
 13 38  1  0  0  0
 14 20  1  0  0  0
 14 39  1  0  0  0
 19 40  1  0  0  0
 19 41  1  0  0  0
 20 42  1  0  0  0
 20 43  1  0  0  0
 20 46  1  0  0  0
 24 44  1  0  0  0
 25 45  1  0  0  0
M  CHG  2  20   1  23  -2
M  END
> <s_m_source_file>
C:\Users\rustenba\GitHub\Epik-Ligands\Results\InProgress\S-ADENOSYL-L-HOMOCYSTEINE\pH_10.0\S-ADENOSYL-L-HOMOCYSTEINE_pH_10.0-before_epik.mol2

> <i_m_source_file_index>
1

> <r_lp_tautomer_probability>
0.999997216410988

> <r_epik_Ionization_Penalty>
  4.1582

> <r_epik_Ionization_Penalty_Charging>
  4.1536

> <r_epik_Ionization_Penalty_Neutral>
  0.0046

> <r_epik_State_Penalty>
  4.4351

> <r_epik_Charging_Adjusted_Penalty>
8.58876082794153

> <i_epik_Tot_Q>
-1

> <i_epik_Tot_abs_Q>
3

> <s_epik_Chemistry_Notes>
This compound contains an acetal/aminal-like group ( X-CH(R)-Y where X, Y are N, S, or O) that may be acid/base labile, releasing an aldehyde.

$$$$
