@<TRIPOS>MOLECULE
2-amino-4-[[5-(6-aminopurin-9-yl)-3,4-dihydroxy-tetrahydrofuran-2-yl]methylsulfanyl]butanoate
   45    47     1     0     0
SMALL
USER_CHARGES

@<TRIPOS>ATOM
      1 N          -3.9390   12.9490   23.9010 N.3       1 SAH        -0.8950
      2 CA         -4.2000   11.9820   24.9600 C.3       1 SAH         0.0284
      3 CB         -2.9430   11.1320   25.1840 C.3       1 SAH        -0.0941
      4 CG         -2.4920   10.4960   23.8630 C.3       1 SAH         0.0067
      5 SD         -1.1570    9.2870   23.8890 S.3       1 SAH        -0.3088
      6 C          -4.7190   12.6510   26.2500 C.2       1 SAH         0.9168
      7 O          -5.6170   13.5130   26.0830 O.co2     1 SAH        -0.8340
      8 OXT        -4.5570   12.0620   27.3540 O.co2     1 SAH        -0.8340
      9 C5'        -1.2660    8.7480   22.1870 C.3       1 SAH        -0.0297
     10 C4'        -2.5480    8.0170   21.8880 C.3       1 SAH         0.1532
     11 O4'        -2.5910    7.8390   20.4400 O.3       1 SAH        -0.3968
     12 C3'        -2.7810    6.5900   22.6150 C.3       1 SAH         0.0685
     13 O3'        -3.8780    6.6110   23.5890 O.3       1 SAH        -0.5818
     14 C2'        -3.0230    5.6880   21.3550 C.3       1 SAH         0.0732
     15 O2'        -3.9020    4.5270   21.4480 O.3       1 SAH        -0.5814
     16 C1'        -3.4830    6.7390   20.3130 C.3       1 SAH         0.4067
     17 N9         -3.4680    6.3410   18.9140 N.pl3     1 SAH        -0.6978
     18 C8         -2.4550    5.6770   18.2020 C.ar      1 SAH         0.5433
     19 N7         -2.8580    5.2660   17.0360 N.ar      1 SAH        -0.5536
     20 C5         -4.1920    5.7280   16.9550 C.ar      1 SAH        -0.2225
     21 C6         -5.1660    5.6140   15.9680 C.ar      1 SAH         0.7446
     22 N6         -4.8690    5.1060   14.7690 N.pl3     1 SAH        -0.9488
     23 N1         -6.4250    5.9470   16.3060 N.ar      1 SAH        -0.7974
     24 C2         -6.6940    6.3660   17.5220 C.ar      1 SAH         0.6759
     25 N3         -5.8590    6.6230   18.5010 N.ar      1 SAH        -0.7233
     26 C4         -4.5990    6.2900   18.1330 C.ar      1 SAH         0.5839
     27 HN1        -3.1283   13.6241   24.2126 H         1 SAH         0.3297
     28 HN2        -3.6421   12.4179   22.9846 H         1 SAH         0.3297
     29 HA         -5.0139   11.3416   24.5893 H         1 SAH         0.0433
     30 HB1        -2.1342   11.7687   25.5719 H         1 SAH         0.0294
     31 HB2        -3.1633   10.3359   25.9104 H         1 SAH         0.0294
     32 HG1        -3.3384    9.9635   23.4047 H         1 SAH         0.0927
     33 HG2        -2.1397   11.2821   23.1790 H         1 SAH         0.0927
     34 H5'1       -1.2145    9.6223   21.5215 H         1 SAH         0.0656
     35 H5'2       -0.4311    8.0675   21.9637 H         1 SAH         0.0656
     36 H4'        -3.3396    8.7048   22.2201 H         1 SAH         0.0956
     37 H3'        -2.0188    6.2137   23.3131 H         1 SAH         0.0658
     38 HO3'       -3.7912    7.2181   24.5022 H         1 SAH         0.4130
     39 H2'        -2.1538    5.0605   21.1086 H         1 SAH         0.0967
     40 HO2'       -3.6711    3.7177   22.1563 H         1 SAH         0.4207
     41 H1'        -4.5349    7.0076   20.4900 H         1 SAH         0.1185
     42 H8         -1.4190    5.4920   18.5340 H         1 SAH         0.0897
     43 HN61       -3.8288    4.8443   14.5248 H         1 SAH         0.4365
     44 HN62       -5.6646    4.9493   14.0257 H         1 SAH         0.4365
     45 H2         -7.7610    6.5220   17.7510 H         1 SAH         0.0466
@<TRIPOS>BOND
     1    1    2 1
     2    1   27 1
     3    1   28 1
     4    2    3 1
     5    2    6 1
     6    2   29 1
     7    3    4 1
     8    3   30 1
     9    3   31 1
    10    4    5 1
    11    4   32 1
    12    4   33 1
    13    5    9 1
    14    6    7 2
    15    6    8 1
    16    9   10 1
    17    9   34 1
    18    9   35 1
    19   10   11 1
    20   10   12 1
    21   10   36 1
    22   11   16 1
    23   12   13 1
    24   12   14 1
    25   12   37 1
    26   13   38 1
    27   14   15 1
    28   14   16 1
    29   14   39 1
    30   15   40 1
    31   16   17 1
    32   16   41 1
    33   17   18 ar
    34   17   26 ar
    35   18   19 ar
    36   18   42 1
    37   19   20 ar
    38   20   21 ar
    39   20   26 ar
    40   21   22 1
    41   21   23 ar
    42   22   43 1
    43   22   44 1
    44   23   24 ar
    45   24   25 ar
    46   24   45 1
    47   25   26 ar
@<TRIPOS>SUBSTRUCTURE
     1 SAH         1 GROUP   0 A     ****
@<TRIPOS>MOLECULE
2-amino-4-[[5-(6-aminopurin-9-yl)-3-hydroxy-4-oxido-tetrahydrofuran-2-yl]methylsulfanyl]butanoate
   44    46     1     0     0
SMALL
USER_CHARGES

@<TRIPOS>ATOM
      1 N          -3.9390   12.9490   23.9010 N.3       1 SAH        -0.9070
      2 CA         -4.2000   11.9820   24.9600 C.3       1 SAH         0.0315
      3 CB         -2.9430   11.1320   25.1840 C.3       1 SAH        -0.0961
      4 CG         -2.4920   10.4960   23.8630 C.3       1 SAH         0.0075
      5 SD         -1.1570    9.2870   23.8890 S.3       1 SAH        -0.3422
      6 C          -4.7190   12.6510   26.2500 C.2       1 SAH         0.9190
      7 O          -5.6170   13.5130   26.0830 O.co2     1 SAH        -0.8454
      8 OXT        -4.5570   12.0620   27.3540 O.co2     1 SAH        -0.8454
      9 C5'        -1.2660    8.7480   22.1870 C.3       1 SAH        -0.0035
     10 C4'        -2.5480    8.0170   21.8880 C.3       1 SAH         0.1346
     11 O4'        -2.5910    7.8390   20.4400 O.3       1 SAH        -0.4268
     12 C3'        -2.7810    6.5900   22.6150 C.3       1 SAH         0.0340
     13 O3'        -3.8780    6.6110   23.5890 O.3       1 SAH        -0.6255
     14 C2'        -3.0230    5.6880   21.3550 C.3       1 SAH         0.3713
     15 O2'        -3.9020    4.5270   21.4480 O.3       1 SAH        -0.8339
     16 C1'        -3.4830    6.7390   20.3130 C.3       1 SAH         0.3151
     17 N9         -3.4680    6.3410   18.9140 N.pl3     1 SAH        -0.6284
     18 C8         -2.4550    5.6770   18.2020 C.ar      1 SAH         0.5393
     19 N7         -2.8580    5.2660   17.0360 N.ar      1 SAH        -0.6013
     20 C5         -4.1920    5.7280   16.9550 C.ar      1 SAH        -0.2091
     21 C6         -5.1660    5.6140   15.9680 C.ar      1 SAH         0.6912
     22 N6         -4.8690    5.1060   14.7690 N.pl3     1 SAH        -0.9279
     23 N1         -6.4250    5.9470   16.3060 N.ar      1 SAH        -0.8077
     24 C2         -6.6940    6.3660   17.5220 C.ar      1 SAH         0.6369
     25 N3         -5.8590    6.6230   18.5010 N.ar      1 SAH        -0.6801
     26 C4         -4.5990    6.2900   18.1330 C.ar      1 SAH         0.5621
     27 HN1        -3.1283   13.6241   24.2126 H         1 SAH         0.3308
     28 HN2        -3.6421   12.4179   22.9846 H         1 SAH         0.3308
     29 HA         -5.0139   11.3416   24.5893 H         1 SAH         0.0445
     30 HB1        -2.1342   11.7687   25.5719 H         1 SAH         0.0373
     31 HB2        -3.1633   10.3359   25.9104 H         1 SAH         0.0373
     32 HG1        -3.3384    9.9635   23.4047 H         1 SAH         0.0744
     33 HG2        -2.1397   11.2821   23.1790 H         1 SAH         0.0744
     34 H5'1       -1.2145    9.6223   21.5215 H         1 SAH         0.0555
     35 H5'2       -0.4311    8.0675   21.9637 H         1 SAH         0.0555
     36 H4'        -3.3396    8.7048   22.2201 H         1 SAH         0.0731
     37 H3'        -2.0188    6.2137   23.3131 H         1 SAH         0.0297
     38 HO3'       -3.7912    7.2181   24.5022 H         1 SAH         0.4291
     39 H2'        -2.1538    5.0605   21.1086 H         1 SAH        -0.0466
     40 H1'        -4.5349    7.0076   20.4900 H         1 SAH         0.0946
     41 H8         -1.4190    5.4920   18.5340 H         1 SAH         0.0838
     42 HN61       -3.8288    4.8443   14.5248 H         1 SAH         0.4017
     43 HN62       -5.6646    4.9493   14.0257 H         1 SAH         0.4017
     44 H2         -7.7610    6.5220   17.7510 H         1 SAH         0.0301
@<TRIPOS>BOND
     1    1    2 1
     2    1   27 1
     3    1   28 1
     4    2    3 1
     5    2    6 1
     6    2   29 1
     7    3    4 1
     8    3   30 1
     9    3   31 1
    10    4    5 1
    11    4   32 1
    12    4   33 1
    13    5    9 1
    14    6    7 2
    15    6    8 1
    16    9   10 1
    17    9   34 1
    18    9   35 1
    19   10   11 1
    20   10   12 1
    21   10   36 1
    22   11   16 1
    23   12   13 1
    24   12   14 1
    25   12   37 1
    26   13   38 1
    27   14   15 1
    28   14   16 1
    29   14   39 1
    30   16   17 1
    31   16   40 1
    32   17   18 ar
    33   17   26 ar
    34   18   19 ar
    35   18   41 1
    36   19   20 ar
    37   20   21 ar
    38   20   26 ar
    39   21   22 1
    40   21   23 ar
    41   22   42 1
    42   22   43 1
    43   23   24 ar
    44   24   25 ar
    45   24   44 1
    46   25   26 ar
@<TRIPOS>SUBSTRUCTURE
     1 SAH         1 GROUP   0 A     ****
@<TRIPOS>MOLECULE
2-amino-4-[[5-(6-aminopurin-9-yl)-4-hydroxy-3-oxido-tetrahydrofuran-2-yl]methylsulfanyl]butanoate
   44    46     1     0     0
SMALL
USER_CHARGES

@<TRIPOS>ATOM
      1 N          -3.9390   12.9490   23.9010 N.3       1 SAH        -0.9004
      2 CA         -4.2000   11.9820   24.9600 C.3       1 SAH         0.0301
      3 CB         -2.9430   11.1320   25.1840 C.3       1 SAH        -0.0908
      4 CG         -2.4920   10.4960   23.8630 C.3       1 SAH         0.0123
      5 SD         -1.1570    9.2870   23.8890 S.3       1 SAH        -0.3720
      6 C          -4.7190   12.6510   26.2500 C.2       1 SAH         0.9147
      7 O          -5.6170   13.5130   26.0830 O.co2     1 SAH        -0.8465
      8 OXT        -4.5570   12.0620   27.3540 O.co2     1 SAH        -0.8465
      9 C5'        -1.2660    8.7480   22.1870 C.3       1 SAH         0.0187
     10 C4'        -2.5480    8.0170   21.8880 C.3       1 SAH         0.0524
     11 O4'        -2.5910    7.8390   20.4400 O.3       1 SAH        -0.4251
     12 C3'        -2.7810    6.5900   22.6150 C.3       1 SAH         0.3764
     13 O3'        -3.8780    6.6110   23.5890 O.3       1 SAH        -0.8438
     14 C2'        -3.0230    5.6880   21.3550 C.3       1 SAH         0.0227
     15 O2'        -3.9020    4.5270   21.4480 O.3       1 SAH        -0.6344
     16 C1'        -3.4830    6.7390   20.3130 C.3       1 SAH         0.4133
     17 N9         -3.4680    6.3410   18.9140 N.pl3     1 SAH        -0.6552
     18 C8         -2.4550    5.6770   18.2020 C.ar      1 SAH         0.5603
     19 N7         -2.8580    5.2660   17.0360 N.ar      1 SAH        -0.5978
     20 C5         -4.1920    5.7280   16.9550 C.ar      1 SAH        -0.2072
     21 C6         -5.1660    5.6140   15.9680 C.ar      1 SAH         0.6991
     22 N6         -4.8690    5.1060   14.7690 N.pl3     1 SAH        -0.9342
     23 N1         -6.4250    5.9470   16.3060 N.ar      1 SAH        -0.8039
     24 C2         -6.6940    6.3660   17.5220 C.ar      1 SAH         0.6427
     25 N3         -5.8590    6.6230   18.5010 N.ar      1 SAH        -0.6934
     26 C4         -4.5990    6.2900   18.1330 C.ar      1 SAH         0.5660
     27 HN1        -3.1283   13.6241   24.2126 H         1 SAH         0.3270
     28 HN2        -3.6421   12.4179   22.9846 H         1 SAH         0.3270
     29 HA         -5.0139   11.3416   24.5893 H         1 SAH         0.0451
     30 HB1        -2.1342   11.7687   25.5719 H         1 SAH         0.0348
     31 HB2        -3.1633   10.3359   25.9104 H         1 SAH         0.0348
     32 HG1        -3.3384    9.9635   23.4047 H         1 SAH         0.0761
     33 HG2        -2.1397   11.2821   23.1790 H         1 SAH         0.0761
     34 H5'1       -1.2145    9.6223   21.5215 H         1 SAH         0.0568
     35 H5'2       -0.4311    8.0675   21.9637 H         1 SAH         0.0568
     36 H4'        -3.3396    8.7048   22.2201 H         1 SAH         0.0660
     37 H3'        -2.0188    6.2137   23.3131 H         1 SAH        -0.0666
     38 H2'        -2.1538    5.0605   21.1086 H         1 SAH         0.0382
     39 HO2'       -3.6711    3.7177   22.1563 H         1 SAH         0.4381
     40 H1'        -4.5349    7.0076   20.4900 H         1 SAH         0.0887
     41 H8         -1.4190    5.4920   18.5340 H         1 SAH         0.0956
     42 HN61       -3.8288    4.8443   14.5248 H         1 SAH         0.4082
     43 HN62       -5.6646    4.9493   14.0257 H         1 SAH         0.4082
     44 H2         -7.7610    6.5220   17.7510 H         1 SAH         0.0313
@<TRIPOS>BOND
     1    1    2 1
     2    1   27 1
     3    1   28 1
     4    2    3 1
     5    2    6 1
     6    2   29 1
     7    3    4 1
     8    3   30 1
     9    3   31 1
    10    4    5 1
    11    4   32 1
    12    4   33 1
    13    5    9 1
    14    6    7 2
    15    6    8 1
    16    9   10 1
    17    9   34 1
    18    9   35 1
    19   10   11 1
    20   10   12 1
    21   10   36 1
    22   11   16 1
    23   12   13 1
    24   12   14 1
    25   12   37 1
    26   14   15 1
    27   14   16 1
    28   14   38 1
    29   15   39 1
    30   16   17 1
    31   16   40 1
    32   17   18 ar
    33   17   26 ar
    34   18   19 ar
    35   18   41 1
    36   19   20 ar
    37   20   21 ar
    38   20   26 ar
    39   21   22 1
    40   21   23 ar
    41   22   42 1
    42   22   43 1
    43   23   24 ar
    44   24   25 ar
    45   24   44 1
    46   25   26 ar
@<TRIPOS>SUBSTRUCTURE
     1 SAH         1 GROUP   0 A     ****
@<TRIPOS>MOLECULE
2-amino-4-[[5-(6-azanidylpurin-9-yl)-3,4-dihydroxy-tetrahydrofuran-2-yl]methylsulfanyl]butanoate
   44    46     1     0     0
SMALL
USER_CHARGES

@<TRIPOS>ATOM
      1 N          -3.9390   12.9490   23.9010 N.3       1 SAH        -0.8979
      2 CA         -4.2000   11.9820   24.9600 C.3       1 SAH         0.0251
      3 CB         -2.9430   11.1320   25.1840 C.3       1 SAH        -0.0841
      4 CG         -2.4920   10.4960   23.8630 C.3       1 SAH         0.0031
      5 SD         -1.1570    9.2870   23.8890 S.3       1 SAH        -0.3078
      6 C          -4.7190   12.6510   26.2500 C.2       1 SAH         0.9204
      7 O          -5.6170   13.5130   26.0830 O.co2     1 SAH        -0.8389
      8 OXT        -4.5570   12.0620   27.3540 O.co2     1 SAH        -0.8389
      9 C5'        -1.2660    8.7480   22.1870 C.3       1 SAH        -0.0234
     10 C4'        -2.5480    8.0170   21.8880 C.3       1 SAH         0.1280
     11 O4'        -2.5910    7.8390   20.4400 O.3       1 SAH        -0.3938
     12 C3'        -2.7810    6.5900   22.6150 C.3       1 SAH         0.0648
     13 O3'        -3.8780    6.6110   23.5890 O.3       1 SAH        -0.6086
     14 C2'        -3.0230    5.6880   21.3550 C.3       1 SAH         0.1049
     15 O2'        -3.9020    4.5270   21.4480 O.3       1 SAH        -0.5889
     16 C1'        -3.4830    6.7390   20.3130 C.3       1 SAH         0.4447
     17 N9         -3.4680    6.3410   18.9140 N.pl3     1 SAH        -0.7169
     18 C8         -2.4550    5.6770   18.2020 C.ar      1 SAH         0.3947
     19 N7         -2.8580    5.2660   17.0360 N.ar      1 SAH        -0.4885
     20 C5         -4.1920    5.7280   16.9550 C.ar      1 SAH        -0.2459
     21 C6         -5.1660    5.6140   15.9680 C.ar      1 SAH         0.6780
     22 N6         -4.8690    5.1060   14.7690 N.2       1 SAH        -0.7638
     23 N1         -6.4250    5.9470   16.3060 N.ar      1 SAH        -0.8943
     24 C2         -6.6940    6.3660   17.5220 C.ar      1 SAH         0.6897
     25 N3         -5.8590    6.6230   18.5010 N.ar      1 SAH        -0.8732
     26 C4         -4.5990    6.2900   18.1330 C.ar      1 SAH         0.6115
     27 HN1        -3.1283   13.6241   24.2126 H         1 SAH         0.3248
     28 HN2        -3.6421   12.4179   22.9846 H         1 SAH         0.3248
     29 HA         -5.0139   11.3416   24.5893 H         1 SAH         0.0496
     30 HB1        -2.1342   11.7687   25.5719 H         1 SAH         0.0615
     31 HB2        -3.1633   10.3359   25.9104 H         1 SAH         0.0615
     32 HG1        -3.3384    9.9635   23.4047 H         1 SAH         0.0499
     33 HG2        -2.1397   11.2821   23.1790 H         1 SAH         0.0499
     34 H5'1       -1.2145    9.6223   21.5215 H         1 SAH         0.0567
     35 H5'2       -0.4311    8.0675   21.9637 H         1 SAH         0.0567
     36 H4'        -3.3396    8.7048   22.2201 H         1 SAH         0.0642
     37 H3'        -2.0188    6.2137   23.3131 H         1 SAH         0.0568
     38 HO3'       -3.7912    7.2181   24.5022 H         1 SAH         0.4092
     39 H2'        -2.1538    5.0605   21.1086 H         1 SAH         0.0719
     40 HO2'       -3.6711    3.7177   22.1563 H         1 SAH         0.4094
     41 H1'        -4.5349    7.0076   20.4900 H         1 SAH         0.1289
     42 H8         -1.4190    5.4920   18.5340 H         1 SAH         0.0341
     43 HN62       -3.8288    4.8443   14.5248 H         1 SAH         0.3001
     44 H2         -7.7610    6.5220   17.7510 H         1 SAH        -0.0100
@<TRIPOS>BOND
     1    1    2 1
     2    1   27 1
     3    1   28 1
     4    2    3 1
     5    2    6 1
     6    2   29 1
     7    3    4 1
     8    3   30 1
     9    3   31 1
    10    4    5 1
    11    4   32 1
    12    4   33 1
    13    5    9 1
    14    6    7 2
    15    6    8 1
    16    9   10 1
    17    9   34 1
    18    9   35 1
    19   10   11 1
    20   10   12 1
    21   10   36 1
    22   11   16 1
    23   12   13 1
    24   12   14 1
    25   12   37 1
    26   13   38 1
    27   14   15 1
    28   14   16 1
    29   14   39 1
    30   15   40 1
    31   16   17 1
    32   16   41 1
    33   17   18 ar
    34   17   26 ar
    35   18   19 ar
    36   18   42 1
    37   19   20 ar
    38   20   21 ar
    39   20   26 ar
    40   21   22 1
    41   21   23 ar
    42   22   43 1
    43   23   24 ar
    44   24   25 ar
    45   24   44 1
    46   25   26 ar
@<TRIPOS>SUBSTRUCTURE
     1 SAH         1 GROUP   0 A     ****
@<TRIPOS>MOLECULE
4-[[5-(6-aminopurin-9-yl)-3,4-dihydroxy-tetrahydrofuran-2-yl]methylsulfanyl]-2-azaniumyl-butanoate
   46    48     1     0     0
SMALL
USER_CHARGES

@<TRIPOS>ATOM
      1 N          -3.9390   12.9490   23.9010 N.4       1 SAH        -0.8305
      2 CA         -4.2000   11.9820   24.9600 C.3       1 SAH        -0.0689
      3 CB         -2.9430   11.1320   25.1840 C.3       1 SAH        -0.0765
      4 CG         -2.4920   10.4960   23.8630 C.3       1 SAH        -0.0221
      5 SD         -1.1570    9.2870   23.8890 S.3       1 SAH        -0.2450
      6 C          -4.7190   12.6510   26.2500 C.2       1 SAH         0.9328
      7 O          -5.6170   13.5130   26.0830 O.co2     1 SAH        -0.7504
      8 OXT        -4.5570   12.0620   27.3540 O.co2     1 SAH        -0.7504
      9 C5'        -1.2660    8.7480   22.1870 C.3       1 SAH        -0.0353
     10 C4'        -2.5480    8.0170   21.8880 C.3       1 SAH         0.1166
     11 O4'        -2.5910    7.8390   20.4400 O.3       1 SAH        -0.3984
     12 C3'        -2.7810    6.5900   22.6150 C.3       1 SAH         0.0711
     13 O3'        -3.8780    6.6110   23.5890 O.3       1 SAH        -0.5863
     14 C2'        -3.0230    5.6880   21.3550 C.3       1 SAH         0.1187
     15 O2'        -3.9020    4.5270   21.4480 O.3       1 SAH        -0.5773
     16 C1'        -3.4830    6.7390   20.3130 C.3       1 SAH         0.4351
     17 N9         -3.4680    6.3410   18.9140 N.pl3     1 SAH        -0.7065
     18 C8         -2.4550    5.6770   18.2020 C.ar      1 SAH         0.5300
     19 N7         -2.8580    5.2660   17.0360 N.ar      1 SAH        -0.5430
     20 C5         -4.1920    5.7280   16.9550 C.ar      1 SAH        -0.2323
     21 C6         -5.1660    5.6140   15.9680 C.ar      1 SAH         0.7579
     22 N6         -4.8690    5.1060   14.7690 N.pl3     1 SAH        -0.9532
     23 N1         -6.4250    5.9470   16.3060 N.ar      1 SAH        -0.7916
     24 C2         -6.6940    6.3660   17.5220 C.ar      1 SAH         0.6871
     25 N3         -5.8590    6.6230   18.5010 N.ar      1 SAH        -0.7294
     26 C4         -4.5990    6.2900   18.1330 C.ar      1 SAH         0.5946
     27 HN1        -3.5725   12.4235   23.0068 H         1 SAH         0.4437
     28 HN2        -3.1794   13.6685   24.2406 H         1 SAH         0.4437
     29 HA         -5.0139   11.3416   24.5893 H         1 SAH         0.0860
     30 HB1        -2.1342   11.7687   25.5719 H         1 SAH         0.0451
     31 HB2        -3.1633   10.3359   25.9104 H         1 SAH         0.0451
     32 HG1        -3.3384    9.9635   23.4047 H         1 SAH         0.1008
     33 HG2        -2.1397   11.2821   23.1790 H         1 SAH         0.1008
     34 H5'1       -1.2145    9.6223   21.5215 H         1 SAH         0.0611
     35 H5'2       -0.4311    8.0675   21.9637 H         1 SAH         0.0611
     36 H4'        -3.3396    8.7048   22.2201 H         1 SAH         0.0956
     37 H3'        -2.0188    6.2137   23.3131 H         1 SAH         0.0540
     38 HO3'       -3.7912    7.2181   24.5022 H         1 SAH         0.4128
     39 H2'        -2.1538    5.0605   21.1086 H         1 SAH         0.0761
     40 HO2'       -3.6711    3.7177   22.1563 H         1 SAH         0.4295
     41 H1'        -4.5349    7.0076   20.4900 H         1 SAH         0.1354
     42 H8         -1.4190    5.4920   18.5340 H         1 SAH         0.0740
     43 HN61       -3.8288    4.8443   14.5248 H         1 SAH         0.4451
     44 HN62       -5.6646    4.9493   14.0257 H         1 SAH         0.4451
     45 H2         -7.7610    6.5220   17.7510 H         1 SAH         0.0542
     46 H46        -4.8681   13.4847   23.6565 H         1 SAH         0.4437
@<TRIPOS>BOND
     1    1    2 1
     2    1   27 1
     3    1   28 1
     4    1   46 1
     5    2    3 1
     6    2    6 1
     7    2   29 1
     8    3    4 1
     9    3   30 1
    10    3   31 1
    11    4    5 1
    12    4   32 1
    13    4   33 1
    14    5    9 1
    15    6    7 2
    16    6    8 1
    17    9   10 1
    18    9   34 1
    19    9   35 1
    20   10   11 1
    21   10   12 1
    22   10   36 1
    23   11   16 1
    24   12   13 1
    25   12   14 1
    26   12   37 1
    27   13   38 1
    28   14   15 1
    29   14   16 1
    30   14   39 1
    31   15   40 1
    32   16   17 1
    33   16   41 1
    34   17   18 ar
    35   17   26 ar
    36   18   19 ar
    37   18   42 1
    38   19   20 ar
    39   20   21 ar
    40   20   26 ar
    41   21   22 1
    42   21   23 ar
    43   22   43 1
    44   22   44 1
    45   23   24 ar
    46   24   25 ar
    47   24   45 1
    48   25   26 ar
@<TRIPOS>SUBSTRUCTURE
     1 SAH         1 GROUP   0 A     ****
