@<TRIPOS>MOLECULE
SAH
   46    48     1     0     0
SMALL
NO_CHARGES

@<TRIPOS>ATOM
      1 C2         -6.6940    6.3660   17.5220 C.ar      1 SAH         0.0000
      2 C8         -2.4550    5.6770   18.2020 C.ar      1 SAH         0.0000
      3 C5         -4.1920    5.7280   16.9550 C.ar      1 SAH         0.0000
      4 C4         -4.5990    6.2900   18.1330 C.ar      1 SAH         0.0000
      5 C6         -5.1660    5.6140   15.9680 C.ar      1 SAH         0.0000
      6 C          -4.7190   12.6510   26.2500 C.2       1 SAH         0.0000
      7 C3'        -2.7810    6.5900   22.6150 C.3       1 SAH         0.0000
      8 C2'        -3.0230    5.6880   21.3550 C.3       1 SAH         0.0000
      9 C4'        -2.5480    8.0170   21.8880 C.3       1 SAH         0.0000
     10 C1'        -3.4830    6.7390   20.3130 C.3       1 SAH         0.0000
     11 C5'        -1.2660    8.7480   22.1870 C.3       1 SAH         0.0000
     12 CB         -2.9430   11.1320   25.1840 C.3       1 SAH         0.0000
     13 CG         -2.4920   10.4960   23.8630 C.3       1 SAH         0.0000
     14 CA         -4.2000   11.9820   24.9600 C.3       1 SAH         0.0000
     15 N3         -5.8590    6.6230   18.5010 N.ar      1 SAH         0.0000
     16 N1         -6.4250    5.9470   16.3060 N.ar      1 SAH         0.0000
     17 N7         -2.8580    5.2660   17.0360 N.ar      1 SAH         0.0000
     18 N9         -3.4680    6.3410   18.9140 N.pl3     1 SAH         0.0000
     19 N6         -4.8690    5.1060   14.7690 N.pl3     1 SAH         0.0000
     20 N          -3.9390   12.9490   23.9010 N.3       1 SAH         0.0000
     21 O          -5.6170   13.5130   26.0830 O.2       1 SAH         0.0000
     22 O4'        -2.5910    7.8390   20.4400 O.3       1 SAH         0.0000
     23 OXT        -4.5570   12.0620   27.3540 O.3       1 SAH         0.0000
     24 O3'        -3.8780    6.6110   23.5890 O.3       1 SAH         0.0000
     25 O2'        -3.9020    4.5270   21.4480 O.3       1 SAH         0.0000
     26 SD         -1.1570    9.2870   23.8890 S.3       1 SAH         0.0000
     27 H2         -7.7533    6.5214   17.7474 H         1 SAH         0.0000
     28 H8         -1.4704    5.5518   18.6283 H         1 SAH         0.0000
     29 H3'        -1.8571    6.2691   23.1639 H         1 SAH         0.0000
     30 H2'        -2.0062    5.2896   21.0209 H         1 SAH         0.0000
     31 H4'        -3.4148    8.6984   22.1287 H         1 SAH         0.0000
     32 H1'        -4.5209    7.1031   20.5138 H         1 SAH         0.0000
     33 H5'1       -1.1741    9.6280   21.5204 H         1 SAH         0.0000
     34 H5'2       -0.4018    8.0945   21.9569 H         1 SAH         0.0000
     35 HB1        -3.1671   10.3542   25.9039 H         1 SAH         0.0000
     36 HB2        -2.1533   11.7607   25.5758 H         1 SAH         0.0000
     37 HG1        -3.3835   10.0115   23.3520 H         1 SAH         0.0000
     38 HG2        -2.2026   11.3125   23.1277 H         1 SAH         0.0000
     39 HA         -5.0038   11.3573   24.5882 H         1 SAH         0.0000
     40 HN61       -5.5228    5.2058   14.0157 H         1 SAH         0.0000
     41 HN62       -4.0415    4.5508   14.6604 H         1 SAH         0.0000
     42 HN1        -3.7850   12.6175   22.9633 H         1 SAH         0.0000
     43 HN2        -3.7159   13.8984   24.1500 H         1 SAH         0.0000
     44 HXT        -3.8224   11.4134   27.3727 H         1 SAH         0.0000
     45 HO3'       -4.3397    5.7638   23.4993 H         1 SAH         0.0000
     46 HO2'       -4.7154    4.7410   20.9582 H         1 SAH         0.0000
@<TRIPOS>BOND
     1    1   15 ar
     2    1   16 ar
     3    2   17 ar
     4    2   18 ar
     5    3    4 ar
     6    3    5 ar
     7    3   17 ar
     8    4   15 ar
     9    4   18 ar
    10    5   16 ar
    11    5   19 1
    12    6   14 1
    13    6   21 2
    14    6   23 1
    15    7    8 1
    16    7    9 1
    17    7   24 1
    18    8   10 1
    19    8   25 1
    20    9   11 1
    21    9   22 1
    22   10   18 1
    23   10   22 1
    24   11   26 1
    25   12   13 1
    26   12   14 1
    27   13   26 1
    28   14   20 1
    29    1   27 1
    30    2   28 1
    31    7   29 1
    32    8   30 1
    33    9   31 1
    34   10   32 1
    35   11   33 1
    36   11   34 1
    37   12   35 1
    38   12   36 1
    39   13   37 1
    40   13   38 1
    41   14   39 1
    42   19   40 1
    43   19   41 1
    44   20   42 1
    45   20   43 1
    46   23   44 1
    47   24   45 1
    48   25   46 1
@<TRIPOS>SUBSTRUCTURE
     1 SAH         1 GROUP 0 A     ****
