ATP
  CCTOOLS-0326171057

 47 49  0  0  1  0  0  0  0  0999 V2000
   46.1070   45.1820   56.9500 P   0  0  0  0  0
   45.7790   46.3300   56.0520 O   0  0  0  0  0
   47.3820   44.4970   56.6260 O   0  0  0  0  0
   45.9720   45.5300   58.3750 O   0  0  0  0  0
   43.9110   43.7400   55.6550 P   0  0  0  0  0
   42.9750   42.7220   55.9860 O   0  0  0  0  0
   43.6030   44.7670   54.6780 O   0  0  0  0  0
   45.0410   44.0150   56.7380 O   0  0  0  0  0
   45.2280   42.6690   53.2570 P   0  0  0  0  0
   46.3800   43.3960   52.7880 O   0  0  0  0  0
   44.1830   42.1900   52.3510 O   0  0  0  0  0
   44.9170   42.7160   54.7890 O   0  0  0  0  0
   46.1720   41.5680   53.3020 O   0  0  0  0  0
   46.6090   40.4220   53.5420 C   0  0  0  0  0
   46.5200   38.9890   53.3640 C   0  0  0  0  0
   46.7850   38.9080   51.9480 O   0  0  0  0  0
   47.8080   38.8740   54.1120 C   0  0  0  0  0
   47.7130   38.3570   55.4230 O   0  0  0  0  0
   48.7190   38.1160   53.1390 C   0  0  0  0  0
   48.6320   36.7370   53.4250 O   0  0  0  0  0
   48.1330   38.4090   51.7210 C   0  0  0  0  0
   48.8460   39.4640   50.9860 N   0  0  0  0  0
   48.6160   40.8420   50.9450 C   0  0  0  0  0
   49.4250   41.4890   50.1650 N   0  0  0  0  0
   50.2320   40.4700   49.6640 C   0  0  0  0  0
   51.3080   40.4660   48.7310 C   0  0  0  0  0
   51.7210   41.5680   48.1290 N   0  0  0  0  0
   51.9120   39.2740   48.4470 N   0  0  0  0  0
   51.4930   38.1510   49.0290 C   0  0  0  0  0
   50.4910   38.0160   49.9000 N   0  0  0  0  0
   49.8920   39.2530   50.1710 C   0  0  0  0  0
   47.5900   43.7670   57.1970 H   0  0  0  0  0
   46.1800   44.8000   58.9460 H   0  0  0  0  0
   44.2280   45.4470   54.4560 H   0  0  0  0  0
   43.4230   41.7100   52.6600 H   0  0  0  0  0
   47.6660   40.5700   53.2210 H   0  0  0  0  0
   46.5870   40.4590   54.6560 H   0  0  0  0  0
   45.6650   38.3270   53.6390 H   0  0  0  0  0
   48.2340   39.8700   54.3750 H   0  0  0  0  0
   48.5320   38.2830   55.8980 H   0  0  0  0  0
   49.7880   38.4220   53.2120 H   0  0  0  0  0
   49.1960   36.2670   52.8220 H   0  0  0  0  0
   48.2030   37.4740   51.1170 H   0  0  0  0  0
   47.8360   41.3900   51.4990 H   0  0  0  0  0
   52.4910   41.5650   47.4600 H   0  0  0  0  0
   51.9400   42.2520   48.8520 H   0  0  0  0  0
   52.0360   37.2290   48.7590 H   0  0  0  0  0
  1  2  2  0  0  0
  1  3  1  0  0  0
  1  4  1  0  0  0
  1  8  1  0  0  0
  3 32  1  0  0  0
  4 33  1  0  0  0
  5  6  2  0  0  0
  5  7  1  0  0  0
  5  8  1  0  0  0
  5 12  1  0  0  0
  7 34  1  0  0  0
  9 10  2  0  0  0
  9 11  1  0  0  0
  9 12  1  0  0  0
  9 13  1  0  0  0
 11 35  1  0  0  0
 13 14  1  0  0  0
 14 15  1  0  0  0
 14 36  1  0  0  0
 14 37  1  0  0  0
 15 16  1  0  0  0
 15 17  1  0  0  0
 15 38  1  0  0  0
 16 21  1  0  0  0
 17 18  1  0  0  0
 17 19  1  0  0  0
 17 39  1  0  0  0
 18 40  1  0  0  0
 19 20  1  0  0  0
 19 21  1  0  0  0
 19 41  1  0  0  0
 20 42  1  0  0  0
 21 22  1  0  0  0
 21 43  1  0  0  0
 22 23  1  0  0  0
 22 31  1  0  0  0
 23 24  2  0  0  0
 23 44  1  0  0  0
 24 25  1  0  0  0
 25 26  1  0  0  0
 25 31  2  0  0  0
 26 27  1  0  0  0
 26 28  2  0  0  0
 27 45  1  0  0  0
 27 46  1  0  0  0
 28 29  1  0  0  0
 29 30  2  0  0  0
 29 47  1  0  0  0
 30 31  1  0  0  0
M  END
$$$$
