@<TRIPOS>MOLECULE
PO4
    5     4     1     0     0
SMALL
NO_CHARGES

@<TRIPOS>ATOM
      1  P         29.9950   23.5160   13.2490 P.3       1 PO4         0.0000
      2  O1        31.0920   22.9880   14.1640 O.2       1 PO4         0.0000
      3  O2        30.4040   24.8960   12.6470 O.3       1 PO4         0.0000
      4  O3        29.6460   22.5180   12.1260 O.3       1 PO4         0.0000
      5  O4        28.7270   23.7440   14.1610 O.3       1 PO4         0.0000
@<TRIPOS>BOND
     1    1    2 2
     2    1    3 1
     3    1    4 1
     4    1    5 1
@<TRIPOS>SUBSTRUCTURE
     1 PO4         1 GROUP 0 A     ****
