GLC
  CCTOOLS-0326171052

 24 24  0  0  1  0  0  0  0  0999 V2000
    8.5370   13.1410   37.4360 C   0  0  0  0  0
    8.6570   12.6250   38.8660 C   0  0  0  0  0
    8.9460   13.7530   39.8190 C   0  0  0  0  0
   10.1450   14.5230   39.3600 C   0  0  0  0  0
    9.8470   15.1610   37.9650 C   0  0  0  0  0
   11.1090   15.8230   37.3730 C   0  0  0  0  0
    7.3430   13.7470   37.2600 O   0  0  0  0  0
    7.4300   12.0310   39.2450 O   0  0  0  0  0
    9.2530   13.1490   41.0940 O   0  0  0  0  0
   10.3170   15.6750   40.2450 O   0  0  0  0  0
    9.3520   14.1830   37.0850 O   0  0  0  0  0
   10.5830   16.5420   36.2380 O   0  0  0  0  0
    8.7560   12.2300   36.8600 H   0  0  0  0  0
    9.4800   11.8960   38.9060 H   0  0  0  0  0
    8.0870   14.4370   39.8790 H   0  0  0  0  0
   11.0120   13.8470   39.3410 H   0  0  0  0  0
    9.0860   15.9440   38.1010 H   0  0  0  0  0
   11.5950   16.4960   38.0950 H   0  0  0  0  0
   11.8940   15.1010   37.1050 H   0  0  0  0  0
    6.9320   13.8890   38.1050 H   0  0  0  0  0
    7.4190   11.8980   40.1860 H   0  0  0  0  0
    9.3200   12.2070   40.9910 H   0  0  0  0  0
   10.3540   15.3790   41.1470 H   0  0  0  0  0
   10.4670   17.4570   36.4680 H   0  0  0  0  0
  1  2  1  0  0  0
  1  7  1  0  0  0
  1 11  1  0  0  0
  1 13  1  0  0  0
  2  3  1  0  0  0
  2  8  1  0  0  0
  2 14  1  0  0  0
  3  4  1  0  0  0
  3  9  1  0  0  0
  3 15  1  0  0  0
  4  5  1  0  0  0
  4 10  1  0  0  0
  4 16  1  0  0  0
  5  6  1  0  0  0
  5 11  1  0  0  0
  5 17  1  0  0  0
  6 12  1  0  0  0
  6 18  1  0  0  0
  6 19  1  0  0  0
  7 20  1  0  0  0
  8 21  1  0  0  0
  9 22  1  0  0  0
 10 23  1  0  0  0
 12 24  1  0  0  0
M  END
$$$$
