@<TRIPOS>MOLECULE
[3,4,5-trihydroxy-5-(hydroxymethyl)tetrahydrofuran-2-yl]methyl phosphate
   27    27     1     0     0
SMALL
USER_CHARGES

@<TRIPOS>ATOM
      1 O1         11.4170    9.1620   27.0210 O.3       1 F6P        -0.6140
      2 C1         10.0290    9.5780   26.9550 C.3       1 F6P         0.1355
      3 C2          9.0930    8.3720   27.0220 C.3       1 F6P         0.2718
      4 O2          9.4370    7.4440   25.9940 O.3       1 F6P        -0.6574
      5 C3          7.6040    8.8040   26.9280 C.3       1 F6P         0.0813
      6 O3          7.0470    8.5180   25.6720 O.3       1 F6P        -0.6178
      7 C4          6.9240    7.9190   27.9540 C.3       1 F6P         0.0848
      8 O4          5.7050    8.3770   28.4860 O.3       1 F6P        -0.5828
      9 C5          7.9990    7.7530   28.9850 C.3       1 F6P         0.1219
     10 O5          9.2430    7.6520   28.2660 O.3       1 F6P        -0.4282
     11 C6          7.7930    6.5030   29.7570 C.3       1 F6P         0.2109
     12 O6          8.8400    6.5130   30.7050 O.3       1 F6P        -0.5523
     13 P           8.9960    5.4420   31.8830 P.3       1 F6P         1.3124
     14 O1P         9.9350    6.0670   32.8520 O.2       1 F6P        -0.9317
     15 O2P         9.6100    4.2080   31.3380 O.3       1 F6P        -0.9317
     16 O3P         7.6960    5.1280   32.5030 O.3       1 F6P        -0.9317
     17 HO1        12.2189    9.9141   26.9847 H         1 F6P         0.4309
     18 H11         9.8057   10.2456   27.8003 H         1 F6P         0.0381
     19 H12         9.8506   10.1113   26.0096 H         1 F6P         0.0381
     20 HO2         9.4022    7.7539   24.9391 H         1 F6P         0.4636
     21 H3          7.4338    9.8869   27.0199 H         1 F6P         0.0659
     22 HO3         7.4007    9.0536   24.7787 H         1 F6P         0.4229
     23 H4          6.5030    6.9944   27.5322 H         1 F6P         0.0671
     24 HO4         4.8413    8.5367   27.8238 H         1 F6P         0.3843
     25 H5          8.0255    8.6011   29.6850 H         1 F6P         0.0757
     26 H61         6.8016    6.5252   30.2331 H         1 F6P         0.0211
     27 H62         7.8549    5.6389   29.0791 H         1 F6P         0.0211
@<TRIPOS>BOND
     1    1    2 1
     2    1   17 1
     3    2    3 1
     4    2   18 1
     5    2   19 1
     6    3    4 1
     7    3    5 1
     8    3   10 1
     9    4   20 1
    10    5    6 1
    11    5    7 1
    12    5   21 1
    13    6   22 1
    14    7    8 1
    15    7    9 1
    16    7   23 1
    17    8   24 1
    18    9   10 1
    19    9   11 1
    20    9   25 1
    21   11   12 1
    22   11   26 1
    23   11   27 1
    24   12   13 1
    25   13   14 2
    26   13   15 1
    27   13   16 1
@<TRIPOS>SUBSTRUCTURE
     1 F6P         1 GROUP   0 A     ****
@<TRIPOS>MOLECULE
[3,4-dihydroxy-5-(hydroxymethyl)-5-oxido-tetrahydrofuran-2-yl]methyl phosphate
   26    26     1     0     0
SMALL
USER_CHARGES

@<TRIPOS>ATOM
      1 O1         11.4170    9.1620   27.0210 O.3       1 F6P        -0.5676
      2 C1         10.0290    9.5780   26.9550 C.3       1 F6P         0.0975
      3 C2          9.0930    8.3720   27.0220 C.3       1 F6P         0.5354
      4 O2          9.4370    7.4440   25.9940 O.3       1 F6P        -0.8562
      5 C3          7.6040    8.8040   26.9280 C.3       1 F6P        -0.0041
      6 O3          7.0470    8.5180   25.6720 O.3       1 F6P        -0.6761
      7 C4          6.9240    7.9190   27.9540 C.3       1 F6P         0.0864
      8 O4          5.7050    8.3770   28.4860 O.3       1 F6P        -0.6056
      9 C5          7.9990    7.7530   28.9850 C.3       1 F6P         0.1486
     10 O5          9.2430    7.6520   28.2660 O.3       1 F6P        -0.4426
     11 C6          7.7930    6.5030   29.7570 C.3       1 F6P         0.2214
     12 O6          8.8400    6.5130   30.7050 O.3       1 F6P        -0.5739
     13 P           8.9960    5.4420   31.8830 P.3       1 F6P         1.3250
     14 O1P         9.9350    6.0670   32.8520 O.2       1 F6P        -0.9491
     15 O2P         9.6100    4.2080   31.3380 O.3       1 F6P        -0.9491
     16 O3P         7.6960    5.1280   32.5030 O.3       1 F6P        -0.9491
     17 HO1        12.2189    9.9141   26.9847 H         1 F6P         0.3370
     18 H11         9.8057   10.2456   27.8003 H         1 F6P        -0.0263
     19 H12         9.8506   10.1113   26.0096 H         1 F6P        -0.0263
     20 H3          7.4338    9.8869   27.0199 H         1 F6P         0.0123
     21 HO3         7.4007    9.0536   24.7787 H         1 F6P         0.4253
     22 H4          6.5030    6.9944   27.5322 H         1 F6P         0.0447
     23 HO4         4.8413    8.5367   27.8238 H         1 F6P         0.3599
     24 H5          8.0255    8.6011   29.6850 H         1 F6P         0.0218
     25 H61         6.8016    6.5252   30.2331 H         1 F6P         0.0053
     26 H62         7.8549    5.6389   29.0791 H         1 F6P         0.0053
@<TRIPOS>BOND
     1    1    2 1
     2    1   17 1
     3    2    3 1
     4    2   18 1
     5    2   19 1
     6    3    4 1
     7    3    5 1
     8    3   10 1
     9    5    6 1
    10    5    7 1
    11    5   20 1
    12    6   21 1
    13    7    8 1
    14    7    9 1
    15    7   22 1
    16    8   23 1
    17    9   10 1
    18    9   11 1
    19    9   24 1
    20   11   12 1
    21   11   25 1
    22   11   26 1
    23   12   13 1
    24   13   14 2
    25   13   15 1
    26   13   16 1
@<TRIPOS>SUBSTRUCTURE
     1 F6P         1 GROUP   0 A     ****
@<TRIPOS>MOLECULE
[3,5-dihydroxy-5-(hydroxymethyl)-4-oxido-tetrahydrofuran-2-yl]methyl phosphate
   26    26     1     0     0
SMALL
USER_CHARGES

@<TRIPOS>ATOM
      1 O1         11.4170    9.1620   27.0210 O.3       1 F6P        -0.6532
      2 C1         10.0290    9.5780   26.9550 C.3       1 F6P         0.1644
      3 C2          9.0930    8.3720   27.0220 C.3       1 F6P         0.2100
      4 O2          9.4370    7.4440   25.9940 O.3       1 F6P        -0.6315
      5 C3          7.6040    8.8040   26.9280 C.3       1 F6P         0.3489
      6 O3          7.0470    8.5180   25.6720 O.3       1 F6P        -0.9027
      7 C4          6.9240    7.9190   27.9540 C.3       1 F6P         0.0281
      8 O4          5.7050    8.3770   28.4860 O.3       1 F6P        -0.6178
      9 C5          7.9990    7.7530   28.9850 C.3       1 F6P         0.1357
     10 O5          9.2430    7.6520   28.2660 O.3       1 F6P        -0.4483
     11 C6          7.7930    6.5030   29.7570 C.3       1 F6P         0.2165
     12 O6          8.8400    6.5130   30.7050 O.3       1 F6P        -0.5689
     13 P           8.9960    5.4420   31.8830 P.3       1 F6P         1.3160
     14 O1P         9.9350    6.0670   32.8520 O.2       1 F6P        -0.9458
     15 O2P         9.6100    4.2080   31.3380 O.3       1 F6P        -0.9458
     16 O3P         7.6960    5.1280   32.5030 O.3       1 F6P        -0.9458
     17 HO1        12.2189    9.9141   26.9847 H         1 F6P         0.4319
     18 H11         9.8057   10.2456   27.8003 H         1 F6P         0.0163
     19 H12         9.8506   10.1113   26.0096 H         1 F6P         0.0163
     20 HO2         9.4022    7.7539   24.9391 H         1 F6P         0.4125
     21 H3          7.4338    9.8869   27.0199 H         1 F6P        -0.0911
     22 H4          6.5030    6.9944   27.5322 H         1 F6P         0.0315
     23 HO4         4.8413    8.5367   27.8238 H         1 F6P         0.3734
     24 H5          8.0255    8.6011   29.6850 H         1 F6P         0.0398
     25 H61         6.8016    6.5252   30.2331 H         1 F6P         0.0048
     26 H62         7.8549    5.6389   29.0791 H         1 F6P         0.0048
@<TRIPOS>BOND
     1    1    2 1
     2    1   17 1
     3    2    3 1
     4    2   18 1
     5    2   19 1
     6    3    4 1
     7    3    5 1
     8    3   10 1
     9    4   20 1
    10    5    6 1
    11    5    7 1
    12    5   21 1
    13    7    8 1
    14    7    9 1
    15    7   22 1
    16    8   23 1
    17    9   10 1
    18    9   11 1
    19    9   24 1
    20   11   12 1
    21   11   25 1
    22   11   26 1
    23   12   13 1
    24   13   14 2
    25   13   15 1
    26   13   16 1
@<TRIPOS>SUBSTRUCTURE
     1 F6P         1 GROUP   0 A     ****
@<TRIPOS>MOLECULE
[4,5-dihydroxy-5-(hydroxymethyl)-3-oxido-tetrahydrofuran-2-yl]methyl phosphate
   26    26     1     0     0
SMALL
USER_CHARGES

@<TRIPOS>ATOM
      1 O1         11.4170    9.1620   27.0210 O.3       1 F6P        -0.5654
      2 C1         10.0290    9.5780   26.9550 C.3       1 F6P         0.1202
      3 C2          9.0930    8.3720   27.0220 C.3       1 F6P         0.3530
      4 O2          9.4370    7.4440   25.9940 O.3       1 F6P        -0.6718
      5 C3          7.6040    8.8040   26.9280 C.3       1 F6P        -0.0179
      6 O3          7.0470    8.5180   25.6720 O.3       1 F6P        -0.6391
      7 C4          6.9240    7.9190   27.9540 C.3       1 F6P         0.4124
      8 O4          5.7050    8.3770   28.4860 O.3       1 F6P        -0.8701
      9 C5          7.9990    7.7530   28.9850 C.3       1 F6P         0.0592
     10 O5          9.2430    7.6520   28.2660 O.3       1 F6P        -0.4742
     11 C6          7.7930    6.5030   29.7570 C.3       1 F6P         0.2226
     12 O6          8.8400    6.5130   30.7050 O.3       1 F6P        -0.5569
     13 P           8.9960    5.4420   31.8830 P.3       1 F6P         1.3237
     14 O1P         9.9350    6.0670   32.8520 O.2       1 F6P        -0.9507
     15 O2P         9.6100    4.2080   31.3380 O.3       1 F6P        -0.9507
     16 O3P         7.6960    5.1280   32.5030 O.3       1 F6P        -0.9507
     17 HO1        12.2189    9.9141   26.9847 H         1 F6P         0.3447
     18 H11         9.8057   10.2456   27.8003 H         1 F6P         0.0001
     19 H12         9.8506   10.1113   26.0096 H         1 F6P         0.0001
     20 HO2         9.4022    7.7539   24.9391 H         1 F6P         0.4275
     21 H3          7.4338    9.8869   27.0199 H         1 F6P         0.0388
     22 HO3         7.4007    9.0536   24.7787 H         1 F6P         0.3953
     23 H4          6.5030    6.9944   27.5322 H         1 F6P        -0.0657
     24 H5          8.0255    8.6011   29.6850 H         1 F6P         0.0505
     25 H61         6.8016    6.5252   30.2331 H         1 F6P        -0.0174
     26 H62         7.8549    5.6389   29.0791 H         1 F6P        -0.0174
@<TRIPOS>BOND
     1    1    2 1
     2    1   17 1
     3    2    3 1
     4    2   18 1
     5    2   19 1
     6    3    4 1
     7    3    5 1
     8    3   10 1
     9    4   20 1
    10    5    6 1
    11    5    7 1
    12    5   21 1
    13    6   22 1
    14    7    8 1
    15    7    9 1
    16    7   23 1
    17    9   10 1
    18    9   11 1
    19    9   24 1
    20   11   12 1
    21   11   25 1
    22   11   26 1
    23   12   13 1
    24   13   14 2
    25   13   15 1
    26   13   16 1
@<TRIPOS>SUBSTRUCTURE
     1 F6P         1 GROUP   0 A     ****
@<TRIPOS>MOLECULE
[3,4,5-trihydroxy-5-(oxidomethyl)tetrahydrofuran-2-yl]methyl phosphate
   26    26     1     0     0
SMALL
USER_CHARGES

@<TRIPOS>ATOM
      1 O1         11.4170    9.1620   27.0210 O.3       1 F6P        -0.8803
      2 C1         10.0290    9.5780   26.9550 C.3       1 F6P         0.4336
      3 C2          9.0930    8.3720   27.0220 C.3       1 F6P         0.2555
      4 O2          9.4370    7.4440   25.9940 O.3       1 F6P        -0.6441
      5 C3          7.6040    8.8040   26.9280 C.3       1 F6P         0.0790
      6 O3          7.0470    8.5180   25.6720 O.3       1 F6P        -0.5769
      7 C4          6.9240    7.9190   27.9540 C.3       1 F6P         0.0603
      8 O4          5.7050    8.3770   28.4860 O.3       1 F6P        -0.5992
      9 C5          7.9990    7.7530   28.9850 C.3       1 F6P         0.1337
     10 O5          9.2430    7.6520   28.2660 O.3       1 F6P        -0.4001
     11 C6          7.7930    6.5030   29.7570 C.3       1 F6P         0.2171
     12 O6          8.8400    6.5130   30.7050 O.3       1 F6P        -0.5606
     13 P           8.9960    5.4420   31.8830 P.3       1 F6P         1.3221
     14 O1P         9.9350    6.0670   32.8520 O.2       1 F6P        -0.9462
     15 O2P         9.6100    4.2080   31.3380 O.3       1 F6P        -0.9462
     16 O3P         7.6960    5.1280   32.5030 O.3       1 F6P        -0.9462
     17 H11         9.8057   10.2456   27.8003 H         1 F6P        -0.1348
     18 H12         9.8506   10.1113   26.0096 H         1 F6P        -0.1348
     19 HO2         9.4022    7.7539   24.9391 H         1 F6P         0.4399
     20 H3          7.4338    9.8869   27.0199 H         1 F6P         0.0230
     21 HO3         7.4007    9.0536   24.7787 H         1 F6P         0.3434
     22 H4          6.5030    6.9944   27.5322 H         1 F6P         0.0550
     23 HO4         4.8413    8.5367   27.8238 H         1 F6P         0.3502
     24 H5          8.0255    8.6011   29.6850 H         1 F6P         0.0487
     25 H61         6.8016    6.5252   30.2331 H         1 F6P         0.0039
     26 H62         7.8549    5.6389   29.0791 H         1 F6P         0.0039
@<TRIPOS>BOND
     1    1    2 1
     2    2    3 1
     3    2   17 1
     4    2   18 1
     5    3    4 1
     6    3    5 1
     7    3   10 1
     8    4   19 1
     9    5    6 1
    10    5    7 1
    11    5   20 1
    12    6   21 1
    13    7    8 1
    14    7    9 1
    15    7   22 1
    16    8   23 1
    17    9   10 1
    18    9   11 1
    19    9   24 1
    20   11   12 1
    21   11   25 1
    22   11   26 1
    23   12   13 1
    24   13   14 2
    25   13   15 1
    26   13   16 1
@<TRIPOS>SUBSTRUCTURE
     1 F6P         1 GROUP   0 A     ****
@<TRIPOS>MOLECULE
[3,4,5-trihydroxy-5-(hydroxymethyl)tetrahydrofuran-2-yl]methyl hydrogen phosphate
   28    28     1     0     0
SMALL
USER_CHARGES

@<TRIPOS>ATOM
      1 O1         11.4170    9.1620   27.0210 O.3       1 F6P        -0.5965
      2 C1         10.0290    9.5780   26.9550 C.3       1 F6P         0.1227
      3 C2          9.0930    8.3720   27.0220 C.3       1 F6P         0.3385
      4 O2          9.4370    7.4440   25.9940 O.3       1 F6P        -0.6187
      5 C3          7.6040    8.8040   26.9280 C.3       1 F6P         0.0853
      6 O3          7.0470    8.5180   25.6720 O.3       1 F6P        -0.5681
      7 C4          6.9240    7.9190   27.9540 C.3       1 F6P         0.0762
      8 O4          5.7050    8.3770   28.4860 O.3       1 F6P        -0.5807
      9 C5          7.9990    7.7530   28.9850 C.3       1 F6P         0.1290
     10 O5          9.2430    7.6520   28.2660 O.3       1 F6P        -0.4181
     11 C6          7.7930    6.5030   29.7570 C.3       1 F6P         0.2105
     12 O6          8.8400    6.5130   30.7050 O.3       1 F6P        -0.5707
     13 P           8.9960    5.4420   31.8830 P.3       1 F6P         1.4265
     14 O1P         9.9350    6.0670   32.8520 O.2       1 F6P        -0.8371
     15 O2P         9.6100    4.2080   31.3380 O.3       1 F6P        -0.8371
     16 O3P         7.6960    5.1280   32.5030 O.3       1 F6P        -0.7625
     17 HO1        12.2189    9.9141   26.9847 H         1 F6P         0.4025
     18 H11         9.8057   10.2456   27.8003 H         1 F6P         0.0427
     19 H12         9.8506   10.1113   26.0096 H         1 F6P         0.0427
     20 HO2         9.4022    7.7539   24.9391 H         1 F6P         0.4304
     21 H3          7.4338    9.8869   27.0199 H         1 F6P         0.0730
     22 HO3         7.4007    9.0536   24.7787 H         1 F6P         0.3884
     23 H4          6.5030    6.9944   27.5322 H         1 F6P         0.0667
     24 HO4         4.8413    8.5367   27.8238 H         1 F6P         0.3915
     25 H5          8.0255    8.6011   29.6850 H         1 F6P         0.0930
     26 H61         6.8016    6.5252   30.2331 H         1 F6P         0.0225
     27 H62         7.8549    5.6389   29.0791 H         1 F6P         0.0225
     28 HOP3        7.0973    5.9291   32.9611 H         1 F6P         0.4248
@<TRIPOS>BOND
     1    1    2 1
     2    1   17 1
     3    2    3 1
     4    2   18 1
     5    2   19 1
     6    3    4 1
     7    3    5 1
     8    3   10 1
     9    4   20 1
    10    5    6 1
    11    5    7 1
    12    5   21 1
    13    6   22 1
    14    7    8 1
    15    7    9 1
    16    7   23 1
    17    8   24 1
    18    9   10 1
    19    9   11 1
    20    9   25 1
    21   11   12 1
    22   11   26 1
    23   11   27 1
    24   12   13 1
    25   13   14 2
    26   13   15 1
    27   13   16 1
    28   16   28 1
@<TRIPOS>SUBSTRUCTURE
     1 F6P         1 GROUP   0 A     ****
