@<TRIPOS>MOLECULE
GAL
24   24    1
SMALL
USER_CHARGES


@<TRIPOS>ATOM
      1 C1          4.9170   90.5790   82.8250 C.3       1 GAL         0.0000 
      2 C2          4.2660   91.8260   82.1310 C.3       1 GAL         0.0000 
      3 C3          4.6880   91.9320   80.6800 C.3       1 GAL         0.0000 
      4 C4          6.2370   91.7980   80.5450 C.3       1 GAL         0.0000 
      5 C5          6.7410   90.5120   81.1390 C.3       1 GAL         0.0000 
      6 C6          8.2680   90.5980   81.0590 C.3       1 GAL         0.0000 
      7 O1          5.1620   90.1270   84.1860 O.3       1 GAL         0.0000 
      8 O2          2.8340   91.8650   82.2210 O.3       1 GAL         0.0000 
      9 O3          4.1520   93.1230   80.0950 O.3       1 GAL         0.0000 
     10 O4          6.9190   92.8280   81.2250 O.3       1 GAL         0.0000 
     11 O5          6.3480   90.4460   82.5310 O.3       1 GAL         0.0000 
     12 O6          9.0200   89.4100   81.1290 O.3       1 GAL         0.0000 
     13 H1          4.0333   90.0083   82.5034 H         1 GAL         0.0000 
     14 H2          4.5613   92.7325   82.6797 H         1 GAL         0.0000 
     15 H3          4.2018   91.1497   80.0787 H         1 GAL         0.0000 
     16 H4          6.5105   91.8899   79.4835 H         1 GAL         0.0000 
     17 H5          6.3127   89.6241   80.6509 H         1 GAL         0.0000 
     18 H61         8.5599   91.0548   80.1019 H         1 GAL         0.0000 
     19 H62         8.6446   91.2138   81.8891 H         1 GAL         0.0000 
     20 HO1         4.3261   90.0410   84.8959 H         1 GAL         0.0000 
     21 HO2         2.3427   91.7999   83.2030 H         1 GAL         0.0000 
     22 HO3         3.0698   93.3162   80.1344 H         1 GAL         0.0000 
     23 HO4         6.7229   93.8797   80.9692 H         1 GAL         0.0000 
     24 HO6        10.1179   89.4499   81.0734 H         1 GAL         0.0000 
@<TRIPOS>BOND
     1    1    2 1    
     2    1    7 1    
     3    1   11 1    
     4    1   13 1    
     5    2    3 1    
     6    2    8 1    
     7    2   14 1    
     8    3    4 1    
     9    3    9 1    
    10    3   15 1    
    11    4    5 1    
    12    4   10 1    
    13    4   16 1    
    14    5    6 1    
    15    5   11 1    
    16    5   17 1    
    17    6   12 1    
    18    6   18 1    
    19    6   19 1    
    20    7   20 1    
    21    8   21 1    
    22    9   22 1    
    23   10   23 1    
    24   12   24 1    
@<TRIPOS>SUBSTRUCTURE
     1 GAL         1 GROUP             0       ****    0 ROOT    
@<TRIPOS>MOLECULE
GAL
23   23    1
SMALL
USER_CHARGES


@<TRIPOS>ATOM
      1 C1          4.9170   90.5790   82.8250 C.3       1 GAL         0.0000 
      2 C2          4.2660   91.8260   82.1310 C.3       1 GAL         0.0000 
      3 C3          4.6880   91.9320   80.6800 C.3       1 GAL         0.0000 
      4 C4          6.2370   91.7980   80.5450 C.3       1 GAL         0.0000 
      5 C5          6.7410   90.5120   81.1390 C.3       1 GAL         0.0000 
      6 C6          8.2680   90.5980   81.0590 C.3       1 GAL         0.0000 
      7 O1          5.1620   90.1270   84.1860 O.3       1 GAL         0.0000 
      8 O2          2.8340   91.8650   82.2210 O.co2     1 GAL         0.0000 
      9 O3          4.1520   93.1230   80.0950 O.3       1 GAL         0.0000 
     10 O4          6.9190   92.8280   81.2250 O.3       1 GAL         0.0000 
     11 O5          6.3480   90.4460   82.5310 O.3       1 GAL         0.0000 
     12 O6          9.0200   89.4100   81.1290 O.3       1 GAL         0.0000 
     13 H1          4.0333   90.0083   82.5034 H         1 GAL         0.0000 
     14 H2          4.5613   92.7325   82.6797 H         1 GAL         0.0000 
     15 H3          4.2018   91.1497   80.0787 H         1 GAL         0.0000 
     16 H4          6.5105   91.8899   79.4835 H         1 GAL         0.0000 
     17 H5          6.3127   89.6241   80.6509 H         1 GAL         0.0000 
     18 H61         8.5599   91.0548   80.1019 H         1 GAL         0.0000 
     19 H62         8.6446   91.2138   81.8891 H         1 GAL         0.0000 
     20 HO1         4.3261   90.0410   84.8959 H         1 GAL         0.0000 
     21 HO3         3.0698   93.3162   80.1344 H         1 GAL         0.0000 
     22 HO4         6.7229   93.8797   80.9692 H         1 GAL         0.0000 
     23 HO6        10.1179   89.4499   81.0734 H         1 GAL         0.0000 
@<TRIPOS>BOND
     1    1    2 1    
     2    1    7 1    
     3    1   11 1    
     4    1   13 1    
     5    2    3 1    
     6    2    8 1    
     7    2   14 1    
     8    3    4 1    
     9    3    9 1    
    10    3   15 1    
    11    4    5 1    
    12    4   10 1    
    13    4   16 1    
    14    5    6 1    
    15    5   11 1    
    16    5   17 1    
    17    6   12 1    
    18    6   18 1    
    19    6   19 1    
    20    7   20 1    
    21    9   21 1    
    22   10   22 1    
    23   12   23 1    
@<TRIPOS>SUBSTRUCTURE
     1 GAL         1 GROUP             0       ****    0 ROOT    
@<TRIPOS>MOLECULE
GAL
23   23    1
SMALL
USER_CHARGES


@<TRIPOS>ATOM
      1 C1          4.9170   90.5790   82.8250 C.3       1 GAL         0.0000 
      2 C2          4.2660   91.8260   82.1310 C.3       1 GAL         0.0000 
      3 C3          4.6880   91.9320   80.6800 C.3       1 GAL         0.0000 
      4 C4          6.2370   91.7980   80.5450 C.3       1 GAL         0.0000 
      5 C5          6.7410   90.5120   81.1390 C.3       1 GAL         0.0000 
      6 C6          8.2680   90.5980   81.0590 C.3       1 GAL         0.0000 
      7 O1          5.1620   90.1270   84.1860 O.co2     1 GAL         0.0000 
      8 O2          2.8340   91.8650   82.2210 O.3       1 GAL         0.0000 
      9 O3          4.1520   93.1230   80.0950 O.3       1 GAL         0.0000 
     10 O4          6.9190   92.8280   81.2250 O.3       1 GAL         0.0000 
     11 O5          6.3480   90.4460   82.5310 O.3       1 GAL         0.0000 
     12 O6          9.0200   89.4100   81.1290 O.3       1 GAL         0.0000 
     13 H1          4.0333   90.0083   82.5034 H         1 GAL         0.0000 
     14 H2          4.5613   92.7325   82.6797 H         1 GAL         0.0000 
     15 H3          4.2018   91.1497   80.0787 H         1 GAL         0.0000 
     16 H4          6.5105   91.8899   79.4835 H         1 GAL         0.0000 
     17 H5          6.3127   89.6241   80.6509 H         1 GAL         0.0000 
     18 H61         8.5599   91.0548   80.1019 H         1 GAL         0.0000 
     19 H62         8.6446   91.2138   81.8891 H         1 GAL         0.0000 
     20 HO2         2.3427   91.7999   83.2030 H         1 GAL         0.0000 
     21 HO3         3.0698   93.3162   80.1344 H         1 GAL         0.0000 
     22 HO4         6.7229   93.8797   80.9692 H         1 GAL         0.0000 
     23 HO6        10.1179   89.4499   81.0734 H         1 GAL         0.0000 
@<TRIPOS>BOND
     1    1    2 1    
     2    1    7 1    
     3    1   11 1    
     4    1   13 1    
     5    2    3 1    
     6    2    8 1    
     7    2   14 1    
     8    3    4 1    
     9    3    9 1    
    10    3   15 1    
    11    4    5 1    
    12    4   10 1    
    13    4   16 1    
    14    5    6 1    
    15    5   11 1    
    16    5   17 1    
    17    6   12 1    
    18    6   18 1    
    19    6   19 1    
    20    8   20 1    
    21    9   21 1    
    22   10   22 1    
    23   12   23 1    
@<TRIPOS>SUBSTRUCTURE
     1 GAL         1 GROUP             0       ****    0 ROOT    
@<TRIPOS>MOLECULE
GAL
23   23    1
SMALL
USER_CHARGES


@<TRIPOS>ATOM
      1 C1          4.9170   90.5790   82.8250 C.3       1 GAL         0.0000 
      2 C2          4.2660   91.8260   82.1310 C.3       1 GAL         0.0000 
      3 C3          4.6880   91.9320   80.6800 C.3       1 GAL         0.0000 
      4 C4          6.2370   91.7980   80.5450 C.3       1 GAL         0.0000 
      5 C5          6.7410   90.5120   81.1390 C.3       1 GAL         0.0000 
      6 C6          8.2680   90.5980   81.0590 C.3       1 GAL         0.0000 
      7 O1          5.1620   90.1270   84.1860 O.3       1 GAL         0.0000 
      8 O2          2.8340   91.8650   82.2210 O.3       1 GAL         0.0000 
      9 O3          4.1520   93.1230   80.0950 O.3       1 GAL         0.0000 
     10 O4          6.9190   92.8280   81.2250 O.co2     1 GAL         0.0000 
     11 O5          6.3480   90.4460   82.5310 O.3       1 GAL         0.0000 
     12 O6          9.0200   89.4100   81.1290 O.3       1 GAL         0.0000 
     13 H1          4.0333   90.0083   82.5034 H         1 GAL         0.0000 
     14 H2          4.5613   92.7325   82.6797 H         1 GAL         0.0000 
     15 H3          4.2018   91.1497   80.0787 H         1 GAL         0.0000 
     16 H4          6.5105   91.8899   79.4835 H         1 GAL         0.0000 
     17 H5          6.3127   89.6241   80.6509 H         1 GAL         0.0000 
     18 H61         8.5599   91.0548   80.1019 H         1 GAL         0.0000 
     19 H62         8.6446   91.2138   81.8891 H         1 GAL         0.0000 
     20 HO1         4.3261   90.0410   84.8959 H         1 GAL         0.0000 
     21 HO2         2.3427   91.7999   83.2030 H         1 GAL         0.0000 
     22 HO3         3.0698   93.3162   80.1344 H         1 GAL         0.0000 
     23 HO6        10.1179   89.4499   81.0734 H         1 GAL         0.0000 
@<TRIPOS>BOND
     1    1    2 1    
     2    1    7 1    
     3    1   11 1    
     4    1   13 1    
     5    2    3 1    
     6    2    8 1    
     7    2   14 1    
     8    3    4 1    
     9    3    9 1    
    10    3   15 1    
    11    4    5 1    
    12    4   10 1    
    13    4   16 1    
    14    5    6 1    
    15    5   11 1    
    16    5   17 1    
    17    6   12 1    
    18    6   18 1    
    19    6   19 1    
    20    7   20 1    
    21    8   21 1    
    22    9   22 1    
    23   12   23 1    
@<TRIPOS>SUBSTRUCTURE
     1 GAL         1 GROUP             0       ****    0 ROOT    
@<TRIPOS>MOLECULE
GAL
23   23    1
SMALL
USER_CHARGES


@<TRIPOS>ATOM
      1 C1          4.9170   90.5790   82.8250 C.3       1 GAL         0.0000 
      2 C2          4.2660   91.8260   82.1310 C.3       1 GAL         0.0000 
      3 C3          4.6880   91.9320   80.6800 C.3       1 GAL         0.0000 
      4 C4          6.2370   91.7980   80.5450 C.3       1 GAL         0.0000 
      5 C5          6.7410   90.5120   81.1390 C.3       1 GAL         0.0000 
      6 C6          8.2680   90.5980   81.0590 C.3       1 GAL         0.0000 
      7 O1          5.1620   90.1270   84.1860 O.3       1 GAL         0.0000 
      8 O2          2.8340   91.8650   82.2210 O.3       1 GAL         0.0000 
      9 O3          4.1520   93.1230   80.0950 O.co2     1 GAL         0.0000 
     10 O4          6.9190   92.8280   81.2250 O.3       1 GAL         0.0000 
     11 O5          6.3480   90.4460   82.5310 O.3       1 GAL         0.0000 
     12 O6          9.0200   89.4100   81.1290 O.3       1 GAL         0.0000 
     13 H1          4.0333   90.0083   82.5034 H         1 GAL         0.0000 
     14 H2          4.5613   92.7325   82.6797 H         1 GAL         0.0000 
     15 H3          4.2018   91.1497   80.0787 H         1 GAL         0.0000 
     16 H4          6.5105   91.8899   79.4835 H         1 GAL         0.0000 
     17 H5          6.3127   89.6241   80.6509 H         1 GAL         0.0000 
     18 H61         8.5599   91.0548   80.1019 H         1 GAL         0.0000 
     19 H62         8.6446   91.2138   81.8891 H         1 GAL         0.0000 
     20 HO1         4.3261   90.0410   84.8959 H         1 GAL         0.0000 
     21 HO2         2.3427   91.7999   83.2030 H         1 GAL         0.0000 
     22 HO4         6.7229   93.8797   80.9692 H         1 GAL         0.0000 
     23 HO6        10.1179   89.4499   81.0734 H         1 GAL         0.0000 
@<TRIPOS>BOND
     1    1    2 1    
     2    1    7 1    
     3    1   11 1    
     4    1   13 1    
     5    2    3 1    
     6    2    8 1    
     7    2   14 1    
     8    3    4 1    
     9    3    9 1    
    10    3   15 1    
    11    4    5 1    
    12    4   10 1    
    13    4   16 1    
    14    5    6 1    
    15    5   11 1    
    16    5   17 1    
    17    6   12 1    
    18    6   18 1    
    19    6   19 1    
    20    7   20 1    
    21    8   21 1    
    22   10   22 1    
    23   12   23 1    
@<TRIPOS>SUBSTRUCTURE
     1 GAL         1 GROUP             0       ****    0 ROOT    
