SAH
  CCTOOLS-0702171040

 46 48  0  0  1  0  0  0  0  0999 V2000
   -3.9390   12.9490   23.9010 N   0  0  0  0  0
   -4.2000   11.9820   24.9600 C   0  0  0  0  0
   -2.9430   11.1320   25.1840 C   0  0  0  0  0
   -2.4920   10.4960   23.8630 C   0  0  0  0  0
   -1.1570    9.2870   23.8890 S   0  0  0  0  0
   -4.7190   12.6510   26.2500 C   0  0  0  0  0
   -5.6170   13.5130   26.0830 O   0  0  0  0  0
   -4.5570   12.0620   27.3540 O   0  0  0  0  0
   -1.2660    8.7480   22.1870 C   0  0  0  0  0
   -2.5480    8.0170   21.8880 C   0  0  0  0  0
   -2.5910    7.8390   20.4400 O   0  0  0  0  0
   -2.7810    6.5900   22.6150 C   0  0  0  0  0
   -3.8780    6.6110   23.5890 O   0  0  0  0  0
   -3.0230    5.6880   21.3550 C   0  0  0  0  0
   -3.9020    4.5270   21.4480 O   0  0  0  0  0
   -3.4830    6.7390   20.3130 C   0  0  0  0  0
   -3.4680    6.3410   18.9140 N   0  0  0  0  0
   -2.4550    5.6770   18.2020 C   0  0  0  0  0
   -2.8580    5.2660   17.0360 N   0  0  0  0  0
   -4.1920    5.7280   16.9550 C   0  0  0  0  0
   -5.1660    5.6140   15.9680 C   0  0  0  0  0
   -4.8690    5.1060   14.7690 N   0  0  0  0  0
   -6.4250    5.9470   16.3060 N   0  0  0  0  0
   -6.6940    6.3660   17.5220 C   0  0  0  0  0
   -5.8590    6.6230   18.5010 N   0  0  0  0  0
   -4.5990    6.2900   18.1330 C   0  0  0  0  0
   -4.7740   13.5140   23.7520 H   0  0  0  0  0
   -3.6120   12.5050   23.0420 H   0  0  0  0  0
   -5.0260   11.3040   24.6410 H   0  0  0  0  0
   -2.1240   11.7160   25.6650 H   0  0  0  0  0
   -3.0920   10.3690   25.9830 H   0  0  0  0  0
   -3.3780   10.0420   23.3610 H   0  0  0  0  0
   -2.2280   11.3070   23.1450 H   0  0  0  0  0
   -4.8760   12.4730   28.1480 H   0  0  0  0  0
   -1.1210    9.6030   21.4860 H   0  0  0  0  0
   -0.3800    8.1320   21.9050 H   0  0  0  0  0
   -3.3690    8.6440   22.3050 H   0  0  0  0  0
   -1.9450    6.2360   23.2630 H   0  0  0  0  0
   -4.0140    5.7730   24.0150 H   0  0  0  0  0
   -2.0950    5.1180   21.1120 H   0  0  0  0  0
   -4.0480    3.9800   20.6840 H   0  0  0  0  0
   -4.5540    6.9430   20.5420 H   0  0  0  0  0
   -1.4190    5.4920   18.5340 H   0  0  0  0  0
   -5.5830    5.0220   14.0450 H   0  0  0  0  0
   -4.4480    4.1870   14.9080 H   0  0  0  0  0
   -7.7610    6.5220   17.7510 H   0  0  0  0  0
  1  2  1  0  0  0
  1 27  1  0  0  0
  1 28  1  0  0  0
  2  3  1  0  0  0
  2  6  1  0  0  0
  2 29  1  0  0  0
  3  4  1  0  0  0
  3 30  1  0  0  0
  3 31  1  0  0  0
  4  5  1  0  0  0
  4 32  1  0  0  0
  4 33  1  0  0  0
  5  9  1  0  0  0
  6  7  2  0  0  0
  6  8  1  0  0  0
  8 34  1  0  0  0
  9 10  1  0  0  0
  9 35  1  0  0  0
  9 36  1  0  0  0
 10 11  1  0  0  0
 10 12  1  0  0  0
 10 37  1  0  0  0
 11 16  1  0  0  0
 12 13  1  0  0  0
 12 14  1  0  0  0
 12 38  1  0  0  0
 13 39  1  0  0  0
 14 15  1  0  0  0
 14 16  1  0  0  0
 14 40  1  0  0  0
 15 41  1  0  0  0
 16 17  1  0  0  0
 16 42  1  0  0  0
 17 18  1  0  0  0
 17 26  1  0  0  0
 18 19  2  0  0  0
 18 43  1  0  0  0
 19 20  1  0  0  0
 20 21  1  0  0  0
 20 26  2  0  0  0
 21 22  1  0  0  0
 21 23  2  0  0  0
 22 44  1  0  0  0
 22 45  1  0  0  0
 23 24  1  0  0  0
 24 25  2  0  0  0
 24 46  1  0  0  0
 25 26  1  0  0  0
M  END
$$$$
