@<TRIPOS>MOLECULE
GLC
24   24    1
SMALL
USER_CHARGES


@<TRIPOS>ATOM
      1 C1          8.5370   13.1410   37.4360 C.3       1 GLC         0.0000 
      2 C2          8.6570   12.6250   38.8660 C.3       1 GLC         0.0000 
      3 C3          8.9460   13.7530   39.8190 C.3       1 GLC         0.0000 
      4 C4         10.1450   14.5230   39.3600 C.3       1 GLC         0.0000 
      5 C5          9.8470   15.1610   37.9650 C.3       1 GLC         0.0000 
      6 C6         11.1090   15.8230   37.3730 C.3       1 GLC         0.0000 
      7 O1          7.3430   13.7470   37.2600 O.3       1 GLC         0.0000 
      8 O2          7.4300   12.0310   39.2450 O.3       1 GLC         0.0000 
      9 O3          9.2530   13.1490   41.0940 O.3       1 GLC         0.0000 
     10 O4         10.3170   15.6750   40.2450 O.3       1 GLC         0.0000 
     11 O5          9.3520   14.1830   37.0850 O.3       1 GLC         0.0000 
     12 O6         10.5830   16.5420   36.2380 O.3       1 GLC         0.0000 
     13 H1          8.7307   12.2945   36.7608 H         1 GLC         0.0000 
     14 H2          9.4361   11.8518   38.9382 H         1 GLC         0.0000 
     15 H3          8.0864   14.4325   39.9158 H         1 GLC         0.0000 
     16 H4         11.0162   13.8523   39.3935 H         1 GLC         0.0000 
     17 H5          9.0288   15.8939   38.0242 H         1 GLC         0.0000 
     18 H61        11.5624   16.4857   38.1248 H         1 GLC         0.0000 
     19 H62        11.8316   15.0445   37.0871 H         1 GLC         0.0000 
     20 HO1         6.4119   13.1946   37.4545 H         1 GLC         0.0000 
     21 HO2         7.0314   11.1797   38.6737 H         1 GLC         0.0000 
     22 HO3         8.4985   12.5351   41.6077 H         1 GLC         0.0000 
     23 HO4        10.5410   15.5211   41.3109 H         1 GLC         0.0000 
     24 HO6        11.2580   17.1290   35.5979 H         1 GLC         0.0000 
@<TRIPOS>BOND
     1    1    2 1    
     2    1    7 1    
     3    1   11 1    
     4    1   13 1    
     5    2    3 1    
     6    2    8 1    
     7    2   14 1    
     8    3    4 1    
     9    3    9 1    
    10    3   15 1    
    11    4    5 1    
    12    4   10 1    
    13    4   16 1    
    14    5    6 1    
    15    5   11 1    
    16    5   17 1    
    17    6   12 1    
    18    6   18 1    
    19    6   19 1    
    20    7   20 1    
    21    8   21 1    
    22    9   22 1    
    23   10   23 1    
    24   12   24 1    
@<TRIPOS>SUBSTRUCTURE
     1 GLC         1 GROUP             0       ****    0 ROOT    
