@<TRIPOS>MOLECULE
4-[[5-(6-amino-1,2-dihydropurin-2-ylium-9-yl)-3,4-dihydroxy-tetrahydrofuran-2-yl]methylsulfanyl]-2-azaniumyl-butanoate
   47    49     1     0     0
SMALL
USER_CHARGES

@<TRIPOS>ATOM
      1 C8         -2.4550    5.6770   18.2020 C.ar      1 SAH         0.5571
      2 C5         -4.1920    5.7280   16.9550 C.ar      1 SAH        -0.1735
      3 C6         -5.1660    5.6140   15.9680 C.ar      1 SAH         0.4963
      4 C4         -4.5990    6.2900   18.1330 C.ar      1 SAH         0.6105
      5 C2         -6.6940    6.3660   17.5220 C.cat     1 SAH         0.3031
      6 C          -4.7190   12.6510   26.2500 C.2       1 SAH         0.9499
      7 C3'        -2.7810    6.5900   22.6150 C.3       1 SAH         0.1287
      8 C2'        -3.0230    5.6880   21.3550 C.3       1 SAH         0.0683
      9 C4'        -2.5480    8.0170   21.8880 C.3       1 SAH         0.1522
     10 C1'        -3.4830    6.7390   20.3130 C.3       1 SAH         0.3804
     11 C5'        -1.2660    8.7480   22.1870 C.3       1 SAH        -0.0618
     12 CB         -2.9430   11.1320   25.1840 C.3       1 SAH        -0.0866
     13 CG         -2.4920   10.4960   23.8630 C.3       1 SAH        -0.0296
     14 CA         -4.2000   11.9820   24.9600 C.3       1 SAH        -0.0972
     15 N7         -2.8580    5.2660   17.0360 N.ar      1 SAH        -0.5176
     16 N3         -5.8590    6.6230   18.5010 N.ar      1 SAH        -0.5232
     17 N1         -6.4250    5.9470   16.3060 N.pl3     1 SAH        -0.6209
     18 N9         -3.4680    6.3410   18.9140 N.pl3     1 SAH        -0.5982
     19 N6         -4.8690    5.1060   14.7690 N.pl3     1 SAH        -0.8032
     20 N          -3.9390   12.9490   23.9010 N.4       1 SAH        -0.8127
     21 OXT        -4.5570   12.0620   27.3540 O.co2     1 SAH        -0.7447
     22 O          -5.6170   13.5130   26.0830 O.co2     1 SAH        -0.7447
     23 O4'        -2.5910    7.8390   20.4400 O.3       1 SAH        -0.4007
     24 O3'        -3.8780    6.6110   23.5890 O.3       1 SAH        -0.5687
     25 O2'        -3.9020    4.5270   21.4480 O.3       1 SAH        -0.5659
     26 SD         -1.1570    9.2870   23.8890 S.3       1 SAH        -0.2234
     27 H8         -1.4903    5.5748   18.6654 H         1 SAH         0.1044
     28 H2         -7.7943    6.5351   17.7798 H         1 SAH         0.2387
     29 H3'        -1.8564    6.2700   23.1629 H         1 SAH         0.0894
     30 H2'        -2.0086    5.2911   21.0229 H         1 SAH         0.0593
     31 H4'        -3.4117    8.6988   22.1298 H         1 SAH         0.1398
     32 H1'        -4.4970    7.1271   20.5494 H         1 SAH         0.1382
     33 H5'1       -1.1740    9.6280   21.5204 H         1 SAH         0.0611
     34 H5'2       -0.4017    8.0945   21.9569 H         1 SAH         0.0611
     35 HB1        -2.1529   11.7600   25.5737 H         1 SAH         0.1048
     36 HB2        -3.1589   10.3608   25.9103 H         1 SAH         0.1048
     37 HG1        -2.1940   11.3108   23.1317 H         1 SAH         0.0458
     38 HG2        -3.3825   10.0158   23.3476 H         1 SAH         0.0458
     39 HA         -5.0027   11.3452   24.6175 H         1 SAH         0.0856
     40 H47        -7.1793    5.8651   15.5939 H         1 SAH         0.4909
     41 HN61       -3.9108    5.0436   14.5004 H         1 SAH         0.4867
     42 HN62       -5.6145    4.8048   14.1793 H         1 SAH         0.4867
     43 HN1        -4.0586   13.8997   24.2531 H         1 SAH         0.4420
     44 HN2        -4.5853   12.8044   23.1239 H         1 SAH         0.4420
     45 H46        -2.9838   12.8457   23.5556 H         1 SAH         0.4420
     46 HO3'       -4.6662    6.2969   23.1207 H         1 SAH         0.4359
     47 HO2'       -3.7316    4.1049   22.3082 H         1 SAH         0.4209
@<TRIPOS>BOND
     1    1   15 ar
     2    1   18 ar
     3    2    3 ar
     4    2    4 ar
     5    2   15 ar
     6    3   17 ar
     7    3   19 1
     8    4   16 ar
     9    4   18 ar
    10    5   16 ar
    11    5   17 ar
    12    6   14 1
    13    6   21 1
    14    6   22 2
    15    7    8 1
    16    7    9 1
    17    7   24 1
    18    8   10 1
    19    8   25 1
    20    9   11 1
    21    9   23 1
    22   10   18 1
    23   10   23 1
    24   11   26 1
    25   12   13 1
    26   12   14 1
    27   13   26 1
    28   14   20 1
    29    1   27 1
    30    5   28 1
    31    7   29 1
    32    8   30 1
    33    9   31 1
    34   10   32 1
    35   11   33 1
    36   11   34 1
    37   12   35 1
    38   12   36 1
    39   13   37 1
    40   13   38 1
    41   14   39 1
    42   17   40 1
    43   19   41 1
    44   19   42 1
    45   20   43 1
    46   20   44 1
    47   20   45 1
    48   24   46 1
    49   25   47 1
@<TRIPOS>SUBSTRUCTURE
     1 SAH         1 GROUP   0 A     ****
@<TRIPOS>MOLECULE
4-[[5-(6-aminopurin-9-yl)-3,4-dihydroxy-tetrahydrofuran-2-yl]methylsulfanyl]-2-azaniumyl-butanoate
   46    48     1     0     0
SMALL
USER_CHARGES

@<TRIPOS>ATOM
      1 C2         -6.6940    6.3660   17.5220 C.ar      1 SAH         0.6912
      2 C8         -2.4550    5.6770   18.2020 C.ar      1 SAH         0.5263
      3 C5         -4.1920    5.7280   16.9550 C.ar      1 SAH        -0.2376
      4 C4         -4.5990    6.2900   18.1330 C.ar      1 SAH         0.6100
      5 C6         -5.1660    5.6140   15.9680 C.ar      1 SAH         0.7616
      6 C          -4.7190   12.6510   26.2500 C.2       1 SAH         0.9390
      7 C3'        -2.7810    6.5900   22.6150 C.3       1 SAH         0.0771
      8 C2'        -3.0230    5.6880   21.3550 C.3       1 SAH         0.1240
      9 C4'        -2.5480    8.0170   21.8880 C.3       1 SAH         0.1243
     10 C1'        -3.4830    6.7390   20.3130 C.3       1 SAH         0.4065
     11 C5'        -1.2660    8.7480   22.1870 C.3       1 SAH        -0.0493
     12 CB         -2.9430   11.1320   25.1840 C.3       1 SAH        -0.0865
     13 CG         -2.4920   10.4960   23.8630 C.3       1 SAH        -0.0238
     14 CA         -4.2000   11.9820   24.9600 C.3       1 SAH        -0.0765
     15 N3         -5.8590    6.6230   18.5010 N.ar      1 SAH        -0.7336
     16 N1         -6.4250    5.9470   16.3060 N.ar      1 SAH        -0.7931
     17 N7         -2.8580    5.2660   17.0360 N.ar      1 SAH        -0.5399
     18 N9         -3.4680    6.3410   18.9140 N.pl3     1 SAH        -0.6925
     19 N6         -4.8690    5.1060   14.7690 N.pl3     1 SAH        -0.9572
     20 N          -3.9390   12.9490   23.9010 N.4       1 SAH        -0.8368
     21 OXT        -4.5570   12.0620   27.3540 O.co2     1 SAH        -0.7505
     22 O          -5.6170   13.5130   26.0830 O.co2     1 SAH        -0.7505
     23 O4'        -2.5910    7.8390   20.4400 O.3       1 SAH        -0.4146
     24 O3'        -3.8780    6.6110   23.5890 O.3       1 SAH        -0.5988
     25 O2'        -3.9020    4.5270   21.4480 O.3       1 SAH        -0.5693
     26 SD         -1.1570    9.2870   23.8890 S.3       1 SAH        -0.2725
     27 H2         -7.7533    6.5214   17.7474 H         1 SAH         0.0535
     28 H8         -1.4704    5.5518   18.6283 H         1 SAH         0.0629
     29 H3'        -1.8566    6.2697   23.1635 H         1 SAH         0.0766
     30 H2'        -2.0058    5.2899   21.0216 H         1 SAH         0.0709
     31 H4'        -3.4147    8.6986   22.1284 H         1 SAH         0.0980
     32 H1'        -4.5210    7.1029   20.5137 H         1 SAH         0.1289
     33 H5'1       -1.1758    9.6269   21.5197 H         1 SAH         0.0737
     34 H5'2       -0.4035    8.0934   21.9561 H         1 SAH         0.0737
     35 HB1        -2.1529   11.7600   25.5737 H         1 SAH         0.1016
     36 HB2        -3.1589   10.3608   25.9103 H         1 SAH         0.1016
     37 HG1        -2.1940   11.3108   23.1317 H         1 SAH         0.0503
     38 HG2        -3.3825   10.0158   23.3476 H         1 SAH         0.0503
     39 HA         -5.0027   11.3452   24.6175 H         1 SAH         0.0907
     40 HN61       -4.0842    5.4678   14.2610 H         1 SAH         0.4477
     41 HN62       -5.4872    4.4370   14.3505 H         1 SAH         0.4477
     42 HN1        -3.7761   12.4681   23.0154 H         1 SAH         0.4444
     43 HN2        -3.1137   13.5060   24.1272 H         1 SAH         0.4444
     44 H46        -4.7369   13.5763   23.7907 H         1 SAH         0.4444
     45 HO3'       -4.5033    5.9247   23.3115 H         1 SAH         0.4279
     46 HO2'       -4.4178    4.4889   20.6234 H         1 SAH         0.4340
@<TRIPOS>BOND
     1    1   15 ar
     2    1   16 ar
     3    2   17 ar
     4    2   18 ar
     5    3    4 ar
     6    3    5 ar
     7    3   17 ar
     8    4   15 ar
     9    4   18 ar
    10    5   16 ar
    11    5   19 1
    12    6   14 1
    13    6   21 1
    14    6   22 2
    15    7    8 1
    16    7    9 1
    17    7   24 1
    18    8   10 1
    19    8   25 1
    20    9   11 1
    21    9   23 1
    22   10   18 1
    23   10   23 1
    24   11   26 1
    25   12   13 1
    26   12   14 1
    27   13   26 1
    28   14   20 1
    29    1   27 1
    30    2   28 1
    31    7   29 1
    32    8   30 1
    33    9   31 1
    34   10   32 1
    35   11   33 1
    36   11   34 1
    37   12   35 1
    38   12   36 1
    39   13   37 1
    40   13   38 1
    41   14   39 1
    42   19   40 1
    43   19   41 1
    44   20   42 1
    45   20   43 1
    46   20   44 1
    47   24   45 1
    48   25   46 1
@<TRIPOS>SUBSTRUCTURE
     1 SAH         1 GROUP   0 A     ****
@<TRIPOS>MOLECULE
4-[[5-(6-amino-7,8-dihydropurin-8-ylium-9-yl)-3,4-dihydroxy-tetrahydrofuran-2-yl]methylsulfanyl]-2-azaniumyl-butanoate
   47    49     1     0     0
SMALL
USER_CHARGES

@<TRIPOS>ATOM
      1 C2         -6.6940    6.3660   17.5220 C.ar      1 SAH         0.7290
      2 C5         -4.1920    5.7280   16.9550 C.ar      1 SAH        -0.2902
      3 C4         -4.5990    6.2900   18.1330 C.ar      1 SAH         0.6349
      4 C6         -5.1660    5.6140   15.9680 C.ar      1 SAH         0.7791
      5 C8         -2.4550    5.6770   18.2020 C.cat     1 SAH         0.2723
      6 C          -4.7190   12.6510   26.2500 C.2       1 SAH         0.9511
      7 C3'        -2.7810    6.5900   22.6150 C.3       1 SAH         0.0950
      8 C2'        -3.0230    5.6880   21.3550 C.3       1 SAH         0.0738
      9 C4'        -2.5480    8.0170   21.8880 C.3       1 SAH         0.1357
     10 C1'        -3.4830    6.7390   20.3130 C.3       1 SAH         0.4181
     11 C5'        -1.2660    8.7480   22.1870 C.3       1 SAH        -0.0678
     12 CB         -2.9430   11.1320   25.1840 C.3       1 SAH        -0.0888
     13 CG         -2.4920   10.4960   23.8630 C.3       1 SAH        -0.0349
     14 CA         -4.2000   11.9820   24.9600 C.3       1 SAH        -0.1018
     15 N3         -5.8590    6.6230   18.5010 N.ar      1 SAH        -0.6839
     16 N1         -6.4250    5.9470   16.3060 N.ar      1 SAH        -0.7364
     17 N7         -2.8580    5.2660   17.0360 N.pl3     1 SAH        -0.4906
     18 N9         -3.4680    6.3410   18.9140 N.pl3     1 SAH        -0.5635
     19 N6         -4.8690    5.1060   14.7690 N.pl3     1 SAH        -0.9365
     20 N          -3.9390   12.9490   23.9010 N.4       1 SAH        -0.8163
     21 OXT        -4.5570   12.0620   27.3540 O.co2     1 SAH        -0.7421
     22 O          -5.6170   13.5130   26.0830 O.co2     1 SAH        -0.7421
     23 O4'        -2.5910    7.8390   20.4400 O.3       1 SAH        -0.4184
     24 O3'        -3.8780    6.6110   23.5890 O.3       1 SAH        -0.5720
     25 O2'        -3.9020    4.5270   21.4480 O.3       1 SAH        -0.5678
     26 SD         -1.1570    9.2870   23.8890 S.3       1 SAH        -0.2228
     27 H2         -7.7599    6.5215   17.7500 H         1 SAH         0.0968
     28 H8         -1.4870    5.5492   18.6116 H         1 SAH         0.2583
     29 H3'        -1.8562    6.2700   23.1629 H         1 SAH         0.1015
     30 H2'        -2.0100    5.2923   21.0180 H         1 SAH         0.0655
     31 H4'        -3.4126    8.6987   22.1299 H         1 SAH         0.1248
     32 H1'        -4.5137    7.1298   20.5432 H         1 SAH         0.1585
     33 H5'1       -1.1741    9.6280   21.5204 H         1 SAH         0.0722
     34 H5'2       -0.4018    8.0945   21.9569 H         1 SAH         0.0722
     35 HB1        -2.1529   11.7600   25.5737 H         1 SAH         0.1042
     36 HB2        -3.1589   10.3608   25.9103 H         1 SAH         0.1042
     37 HG1        -2.1940   11.3108   23.1317 H         1 SAH         0.0532
     38 HG2        -3.3825   10.0158   23.3476 H         1 SAH         0.0532
     39 HA         -5.0027   11.3452   24.6175 H         1 SAH         0.0881
     40 H47        -2.3704    4.7441   16.3353 H         1 SAH         0.5056
     41 HN61       -3.9936    5.3370   14.3441 H         1 SAH         0.4648
     42 HN62       -5.5631    4.5814   14.2757 H         1 SAH         0.4648
     43 HN1        -4.0575   13.8997   24.2534 H         1 SAH         0.4441
     44 HN2        -4.5861   12.8051   23.1244 H         1 SAH         0.4441
     45 H46        -2.9842   12.8450   23.5549 H         1 SAH         0.4441
     46 HO3'       -4.6661    6.2969   23.1207 H         1 SAH         0.4333
     47 HO2'       -3.7319    4.1045   22.3082 H         1 SAH         0.4337
@<TRIPOS>BOND
     1    1   15 ar
     2    1   16 ar
     3    2    3 ar
     4    2    4 ar
     5    2   17 ar
     6    3   15 ar
     7    3   18 ar
     8    4   16 ar
     9    4   19 1
    10    5   17 ar
    11    5   18 ar
    12    6   14 1
    13    6   21 1
    14    6   22 2
    15    7    8 1
    16    7    9 1
    17    7   24 1
    18    8   10 1
    19    8   25 1
    20    9   11 1
    21    9   23 1
    22   10   18 1
    23   10   23 1
    24   11   26 1
    25   12   13 1
    26   12   14 1
    27   13   26 1
    28   14   20 1
    29    1   27 1
    30    5   28 1
    31    7   29 1
    32    8   30 1
    33    9   31 1
    34   10   32 1
    35   11   33 1
    36   11   34 1
    37   12   35 1
    38   12   36 1
    39   13   37 1
    40   13   38 1
    41   14   39 1
    42   17   40 1
    43   19   41 1
    44   19   42 1
    45   20   43 1
    46   20   44 1
    47   20   45 1
    48   24   46 1
    49   25   47 1
@<TRIPOS>SUBSTRUCTURE
     1 SAH         1 GROUP   0 A     ****
@<TRIPOS>MOLECULE
[3-[[5-(6-amino-1,2-dihydropurin-2-ylium-9-yl)-3,4-dihydroxy-tetrahydrofuran-2-yl]methylsulfanyl]-1-carboxy-propyl]ammonium
   48    50     1     0     0
SMALL
USER_CHARGES

@<TRIPOS>ATOM
      1 C8         -2.4550    5.6770   18.2020 C.ar      1 SAH         0.5564
      2 C5         -4.1920    5.7280   16.9550 C.ar      1 SAH        -0.1701
      3 C6         -5.1660    5.6140   15.9680 C.ar      1 SAH         0.4989
      4 C4         -4.5990    6.2900   18.1330 C.ar      1 SAH         0.6087
      5 C2         -6.6940    6.3660   17.5220 C.cat     1 SAH         0.3090
      6 C          -4.7190   12.6510   26.2500 C.2       1 SAH         0.6072
      7 C3'        -2.7810    6.5900   22.6150 C.3       1 SAH         0.0934
      8 C2'        -3.0230    5.6880   21.3550 C.3       1 SAH         0.0705
      9 C4'        -2.5480    8.0170   21.8880 C.3       1 SAH         0.1282
     10 C1'        -3.4830    6.7390   20.3130 C.3       1 SAH         0.4166
     11 C5'        -1.2660    8.7480   22.1870 C.3       1 SAH        -0.0602
     12 CB         -2.9430   11.1320   25.1840 C.3       1 SAH        -0.0962
     13 CG         -2.4920   10.4960   23.8630 C.3       1 SAH        -0.0572
     14 CA         -4.2000   11.9820   24.9600 C.3       1 SAH         0.0571
     15 N7         -2.8580    5.2660   17.0360 N.ar      1 SAH        -0.5116
     16 N3         -5.8590    6.6230   18.5010 N.ar      1 SAH        -0.5211
     17 N1         -6.4250    5.9470   16.3060 N.pl3     1 SAH        -0.6205
     18 N9         -3.4680    6.3410   18.9140 N.pl3     1 SAH        -0.6079
     19 N6         -4.8690    5.1060   14.7690 N.pl3     1 SAH        -0.7958
     20 N          -3.9390   12.9490   23.9010 N.4       1 SAH        -0.8311
     21 O          -5.6170   13.5130   26.0830 O.2       1 SAH        -0.4336
     22 O4'        -2.5910    7.8390   20.4400 O.3       1 SAH        -0.3891
     23 OXT        -4.5570   12.0620   27.3540 O.3       1 SAH        -0.6216
     24 O3'        -3.8780    6.6110   23.5890 O.3       1 SAH        -0.5781
     25 O2'        -3.9020    4.5270   21.4480 O.3       1 SAH        -0.5716
     26 SD         -1.1570    9.2870   23.8890 S.3       1 SAH        -0.2292
     27 H8         -1.4903    5.5748   18.6654 H         1 SAH         0.1080
     28 H2         -7.7943    6.5351   17.7798 H         1 SAH         0.2428
     29 H3'        -1.8564    6.2700   23.1629 H         1 SAH         0.0686
     30 H2'        -2.0086    5.2911   21.0229 H         1 SAH         0.0677
     31 H4'        -3.4117    8.6988   22.1298 H         1 SAH         0.1261
     32 H1'        -4.4970    7.1271   20.5494 H         1 SAH         0.1455
     33 H5'1       -1.1740    9.6280   21.5204 H         1 SAH         0.0778
     34 H5'2       -0.4017    8.0945   21.9569 H         1 SAH         0.0778
     35 HB1        -2.1528   11.7375   25.5764 H         1 SAH         0.0819
     36 HB2        -3.1603   10.3469   25.8807 H         1 SAH         0.0819
     37 HG1        -2.2284   11.2998   23.1224 H         1 SAH         0.1176
     38 HG2        -3.3844   10.0013   23.3932 H         1 SAH         0.1176
     39 HA         -5.0467   11.3498   24.5640 H         1 SAH         0.1628
     40 H48        -7.1793    5.8651   15.5939 H         1 SAH         0.4948
     41 HN61       -4.0827    5.4713   14.2767 H         1 SAH         0.4898
     42 HN62       -5.4427    4.3772   14.4031 H         1 SAH         0.4898
     43 HN1        -4.6132   12.8378   23.1404 H         1 SAH         0.4731
     44 HN2        -2.9986   12.8181   23.5212 H         1 SAH         0.4731
     45 H47        -4.0123   13.9031   24.2613 H         1 SAH         0.4731
     46 HXT        -3.9241   11.3126   27.3374 H         1 SAH         0.5012
     47 HO3'       -4.6662    6.2969   23.1207 H         1 SAH         0.4417
     48 HO2'       -3.7316    4.1049   22.3082 H         1 SAH         0.4363
@<TRIPOS>BOND
     1    1   15 ar
     2    1   18 ar
     3    2    3 ar
     4    2    4 ar
     5    2   15 ar
     6    3   17 ar
     7    3   19 1
     8    4   16 ar
     9    4   18 ar
    10    5   16 ar
    11    5   17 ar
    12    6   14 1
    13    6   21 2
    14    6   23 1
    15    7    8 1
    16    7    9 1
    17    7   24 1
    18    8   10 1
    19    8   25 1
    20    9   11 1
    21    9   22 1
    22   10   18 1
    23   10   22 1
    24   11   26 1
    25   12   13 1
    26   12   14 1
    27   13   26 1
    28   14   20 1
    29    1   27 1
    30    5   28 1
    31    7   29 1
    32    8   30 1
    33    9   31 1
    34   10   32 1
    35   11   33 1
    36   11   34 1
    37   12   35 1
    38   12   36 1
    39   13   37 1
    40   13   38 1
    41   14   39 1
    42   17   40 1
    43   19   41 1
    44   19   42 1
    45   20   43 1
    46   20   44 1
    47   20   45 1
    48   23   46 1
    49   24   47 1
    50   25   48 1
@<TRIPOS>SUBSTRUCTURE
     1 SAH         1 GROUP   0 A     ****
@<TRIPOS>MOLECULE
[3-[[5-(6-aminopurin-9-yl)-3,4-dihydroxy-tetrahydrofuran-2-yl]methylsulfanyl]-1-carboxy-propyl]ammonium
   47    49     1     0     0
SMALL
USER_CHARGES

@<TRIPOS>ATOM
      1 C2         -6.6940    6.3660   17.5220 C.ar      1 SAH         0.7035
      2 C8         -2.4550    5.6770   18.2020 C.ar      1 SAH         0.5269
      3 C5         -4.1920    5.7280   16.9550 C.ar      1 SAH        -0.2314
      4 C4         -4.5990    6.2900   18.1330 C.ar      1 SAH         0.5878
      5 C6         -5.1660    5.6140   15.9680 C.ar      1 SAH         0.7715
      6 C          -4.7190   12.6510   26.2500 C.2       1 SAH         0.6093
      7 C3'        -2.7810    6.5900   22.6150 C.3       1 SAH         0.1272
      8 C2'        -3.0230    5.6880   21.3550 C.3       1 SAH         0.0716
      9 C4'        -2.5480    8.0170   21.8880 C.3       1 SAH         0.1300
     10 C1'        -3.4830    6.7390   20.3130 C.3       1 SAH         0.3988
     11 C5'        -1.2660    8.7480   22.1870 C.3       1 SAH        -0.0544
     12 CB         -2.9430   11.1320   25.1840 C.3       1 SAH        -0.0965
     13 CG         -2.4920   10.4960   23.8630 C.3       1 SAH        -0.0606
     14 CA         -4.2000   11.9820   24.9600 C.3       1 SAH         0.0575
     15 N3         -5.8590    6.6230   18.5010 N.ar      1 SAH        -0.7649
     16 N1         -6.4250    5.9470   16.3060 N.ar      1 SAH        -0.7859
     17 N7         -2.8580    5.2660   17.0360 N.ar      1 SAH        -0.5289
     18 N9         -3.4680    6.3410   18.9140 N.pl3     1 SAH        -0.7155
     19 N6         -4.8690    5.1060   14.7690 N.pl3     1 SAH        -0.9478
     20 N          -3.9390   12.9490   23.9010 N.4       1 SAH        -0.8365
     21 O          -5.6170   13.5130   26.0830 O.2       1 SAH        -0.4331
     22 O4'        -2.5910    7.8390   20.4400 O.3       1 SAH        -0.3943
     23 OXT        -4.5570   12.0620   27.3540 O.3       1 SAH        -0.6294
     24 O3'        -3.8780    6.6110   23.5890 O.3       1 SAH        -0.5949
     25 O2'        -3.9020    4.5270   21.4480 O.3       1 SAH        -0.5902
     26 SD         -1.1570    9.2870   23.8890 S.3       1 SAH        -0.2330
     27 H2         -7.7533    6.5214   17.7474 H         1 SAH         0.0614
     28 H8         -1.4704    5.5518   18.6283 H         1 SAH         0.0706
     29 H3'        -1.8570    6.2694   23.1639 H         1 SAH         0.0597
     30 H2'        -2.0060    5.2897   21.0211 H         1 SAH         0.0645
     31 H4'        -3.4148    8.6985   22.1287 H         1 SAH         0.1042
     32 H1'        -4.5209    7.1030   20.5138 H         1 SAH         0.1204
     33 H5'1       -1.1740    9.6280   21.5204 H         1 SAH         0.0815
     34 H5'2       -0.4017    8.0945   21.9569 H         1 SAH         0.0815
     35 HB1        -2.1528   11.7375   25.5764 H         1 SAH         0.0797
     36 HB2        -3.1603   10.3469   25.8807 H         1 SAH         0.0797
     37 HG1        -2.2284   11.2998   23.1224 H         1 SAH         0.1134
     38 HG2        -3.3844   10.0013   23.3932 H         1 SAH         0.1134
     39 HA         -5.0467   11.3498   24.5640 H         1 SAH         0.1698
     40 HN61       -3.9089    5.0221   14.4933 H         1 SAH         0.4541
     41 HN62       -5.6083    4.9029   14.1232 H         1 SAH         0.4541
     42 HN1        -3.0422   12.7535   23.4506 H         1 SAH         0.4708
     43 HN2        -3.9093   13.8974   24.2823 H         1 SAH         0.4708
     44 H47        -4.6733   12.9088   23.1906 H         1 SAH         0.4708
     45 HXT        -4.2502   11.1325   27.2891 H         1 SAH         0.4970
     46 HO3'       -4.6063    6.1105   23.1915 H         1 SAH         0.4470
     47 HO2'       -4.3627    4.4449   20.5946 H         1 SAH         0.4490
@<TRIPOS>BOND
     1    1   15 ar
     2    1   16 ar
     3    2   17 ar
     4    2   18 ar
     5    3    4 ar
     6    3    5 ar
     7    3   17 ar
     8    4   15 ar
     9    4   18 ar
    10    5   16 ar
    11    5   19 1
    12    6   14 1
    13    6   21 2
    14    6   23 1
    15    7    8 1
    16    7    9 1
    17    7   24 1
    18    8   10 1
    19    8   25 1
    20    9   11 1
    21    9   22 1
    22   10   18 1
    23   10   22 1
    24   11   26 1
    25   12   13 1
    26   12   14 1
    27   13   26 1
    28   14   20 1
    29    1   27 1
    30    2   28 1
    31    7   29 1
    32    8   30 1
    33    9   31 1
    34   10   32 1
    35   11   33 1
    36   11   34 1
    37   12   35 1
    38   12   36 1
    39   13   37 1
    40   13   38 1
    41   14   39 1
    42   19   40 1
    43   19   41 1
    44   20   42 1
    45   20   43 1
    46   20   44 1
    47   23   45 1
    48   24   46 1
    49   25   47 1
@<TRIPOS>SUBSTRUCTURE
     1 SAH         1 GROUP   0 A     ****
@<TRIPOS>MOLECULE
[3-[[5-(6-amino-7,8-dihydropurin-8-ylium-9-yl)-3,4-dihydroxy-tetrahydrofuran-2-yl]methylsulfanyl]-1-carboxy-propyl]ammonium
   48    50     1     0     0
SMALL
USER_CHARGES

@<TRIPOS>ATOM
      1 C2         -6.6940    6.3660   17.5220 C.ar      1 SAH         0.7361
      2 C5         -4.1920    5.7280   16.9550 C.ar      1 SAH        -0.2956
      3 C4         -4.5990    6.2900   18.1330 C.ar      1 SAH         0.6360
      4 C6         -5.1660    5.6140   15.9680 C.ar      1 SAH         0.7839
      5 C8         -2.4550    5.6770   18.2020 C.cat     1 SAH         0.2648
      6 C          -4.7190   12.6510   26.2500 C.2       1 SAH         0.6075
      7 C3'        -2.7810    6.5900   22.6150 C.3       1 SAH         0.0953
      8 C2'        -3.0230    5.6880   21.3550 C.3       1 SAH         0.0786
      9 C4'        -2.5480    8.0170   21.8880 C.3       1 SAH         0.1211
     10 C1'        -3.4830    6.7390   20.3130 C.3       1 SAH         0.4156
     11 C5'        -1.2660    8.7480   22.1870 C.3       1 SAH        -0.0539
     12 CB         -2.9430   11.1320   25.1840 C.3       1 SAH        -0.0972
     13 CG         -2.4920   10.4960   23.8630 C.3       1 SAH        -0.0498
     14 CA         -4.2000   11.9820   24.9600 C.3       1 SAH         0.0544
     15 N3         -5.8590    6.6230   18.5010 N.ar      1 SAH        -0.6907
     16 N1         -6.4250    5.9470   16.3060 N.ar      1 SAH        -0.7258
     17 N7         -2.8580    5.2660   17.0360 N.pl3     1 SAH        -0.4767
     18 N9         -3.4680    6.3410   18.9140 N.pl3     1 SAH        -0.5734
     19 N6         -4.8690    5.1060   14.7690 N.pl3     1 SAH        -0.9285
     20 N          -3.9390   12.9490   23.9010 N.4       1 SAH        -0.8321
     21 O          -5.6170   13.5130   26.0830 O.2       1 SAH        -0.4337
     22 O4'        -2.5910    7.8390   20.4400 O.3       1 SAH        -0.3993
     23 OXT        -4.5570   12.0620   27.3540 O.3       1 SAH        -0.6215
     24 O3'        -3.8780    6.6110   23.5890 O.3       1 SAH        -0.5749
     25 O2'        -3.9020    4.5270   21.4480 O.3       1 SAH        -0.5620
     26 SD         -1.1570    9.2870   23.8890 S.3       1 SAH        -0.2464
     27 H2         -7.7599    6.5215   17.7500 H         1 SAH         0.1019
     28 H8         -1.4870    5.5492   18.6116 H         1 SAH         0.2530
     29 H3'        -1.8562    6.2700   23.1629 H         1 SAH         0.0763
     30 H2'        -2.0100    5.2923   21.0180 H         1 SAH         0.0682
     31 H4'        -3.4126    8.6987   22.1299 H         1 SAH         0.1290
     32 H1'        -4.5137    7.1298   20.5432 H         1 SAH         0.1626
     33 H5'1       -1.1741    9.6280   21.5204 H         1 SAH         0.0746
     34 H5'2       -0.4018    8.0945   21.9569 H         1 SAH         0.0746
     35 HB1        -2.1528   11.7375   25.5764 H         1 SAH         0.0836
     36 HB2        -3.1603   10.3469   25.8807 H         1 SAH         0.0836
     37 HG1        -2.2284   11.2998   23.1224 H         1 SAH         0.1205
     38 HG2        -3.3844   10.0013   23.3932 H         1 SAH         0.1205
     39 HA         -5.0467   11.3498   24.5640 H         1 SAH         0.1617
     40 H48        -2.3704    4.7441   16.3353 H         1 SAH         0.5081
     41 HN61       -5.2531    4.2211   14.5049 H         1 SAH         0.4687
     42 HN62       -4.1950    5.5715   14.1951 H         1 SAH         0.4687
     43 HN1        -4.6124   12.8370   23.1399 H         1 SAH         0.4743
     44 HN2        -2.9981   12.8189   23.5220 H         1 SAH         0.4743
     45 H47        -4.0136   13.9031   24.2611 H         1 SAH         0.4743
     46 HXT        -3.9232   11.3134   27.3377 H         1 SAH         0.5032
     47 HO3'       -4.6661    6.2969   23.1207 H         1 SAH         0.4454
     48 HO2'       -3.7319    4.1045   22.3082 H         1 SAH         0.4412
@<TRIPOS>BOND
     1    1   15 ar
     2    1   16 ar
     3    2    3 ar
     4    2    4 ar
     5    2   17 ar
     6    3   15 ar
     7    3   18 ar
     8    4   16 ar
     9    4   19 1
    10    5   17 ar
    11    5   18 ar
    12    6   14 1
    13    6   21 2
    14    6   23 1
    15    7    8 1
    16    7    9 1
    17    7   24 1
    18    8   10 1
    19    8   25 1
    20    9   11 1
    21    9   22 1
    22   10   18 1
    23   10   22 1
    24   11   26 1
    25   12   13 1
    26   12   14 1
    27   13   26 1
    28   14   20 1
    29    1   27 1
    30    5   28 1
    31    7   29 1
    32    8   30 1
    33    9   31 1
    34   10   32 1
    35   11   33 1
    36   11   34 1
    37   12   35 1
    38   12   36 1
    39   13   37 1
    40   13   38 1
    41   14   39 1
    42   17   40 1
    43   19   41 1
    44   19   42 1
    45   20   43 1
    46   20   44 1
    47   20   45 1
    48   23   46 1
    49   24   47 1
    50   25   48 1
@<TRIPOS>SUBSTRUCTURE
     1 SAH         1 GROUP   0 A     ****
@<TRIPOS>MOLECULE
2-amino-4-[[5-(6-aminopurin-9-yl)-3,4-dihydroxy-tetrahydrofuran-2-yl]methylsulfanyl]butanoate
   45    47     1     0     0
SMALL
USER_CHARGES

@<TRIPOS>ATOM
      1 C2         -6.6940    6.3660   17.5220 C.ar      1 SAH         0.6757
      2 C8         -2.4550    5.6770   18.2020 C.ar      1 SAH         0.5465
      3 C5         -4.1920    5.7280   16.9550 C.ar      1 SAH        -0.2236
      4 C4         -4.5990    6.2900   18.1330 C.ar      1 SAH         0.5820
      5 C6         -5.1660    5.6140   15.9680 C.ar      1 SAH         0.7428
      6 C          -4.7190   12.6510   26.2500 C.2       1 SAH         0.8840
      7 C3'        -2.7810    6.5900   22.6150 C.3       1 SAH         0.0691
      8 C2'        -3.0230    5.6880   21.3550 C.3       1 SAH         0.0733
      9 C4'        -2.5480    8.0170   21.8880 C.3       1 SAH         0.1517
     10 C1'        -3.4830    6.7390   20.3130 C.3       1 SAH         0.4064
     11 C5'        -1.2660    8.7480   22.1870 C.3       1 SAH        -0.0259
     12 CB         -2.9430   11.1320   25.1840 C.3       1 SAH        -0.0546
     13 CG         -2.4920   10.4960   23.8630 C.3       1 SAH         0.0012
     14 CA         -4.2000   11.9820   24.9600 C.3       1 SAH         0.0191
     15 N3         -5.8590    6.6230   18.5010 N.ar      1 SAH        -0.7219
     16 N1         -6.4250    5.9470   16.3060 N.ar      1 SAH        -0.7972
     17 N7         -2.8580    5.2660   17.0360 N.ar      1 SAH        -0.5532
     18 N9         -3.4680    6.3410   18.9140 N.pl3     1 SAH        -0.6980
     19 N6         -4.8690    5.1060   14.7690 N.pl3     1 SAH        -0.9482
     20 N          -3.9390   12.9490   23.9010 N.3       1 SAH        -0.8929
     21 OXT        -4.5570   12.0620   27.3540 O.co2     1 SAH        -0.8395
     22 O          -5.6170   13.5130   26.0830 O.co2     1 SAH        -0.8395
     23 O4'        -2.5910    7.8390   20.4400 O.3       1 SAH        -0.3978
     24 O3'        -3.8780    6.6110   23.5890 O.3       1 SAH        -0.5798
     25 O2'        -3.9020    4.5270   21.4480 O.3       1 SAH        -0.5832
     26 SD         -1.1570    9.2870   23.8890 S.3       1 SAH        -0.3157
     27 H2         -7.7533    6.5214   17.7474 H         1 SAH         0.0469
     28 H8         -1.4704    5.5518   18.6283 H         1 SAH         0.0873
     29 H3'        -1.8571    6.2691   23.1639 H         1 SAH         0.0649
     30 H2'        -2.0062    5.2896   21.0209 H         1 SAH         0.0939
     31 H4'        -3.4148    8.6984   22.1287 H         1 SAH         0.0983
     32 H1'        -4.5209    7.1031   20.5138 H         1 SAH         0.1208
     33 H5'1       -1.1741    9.6280   21.5204 H         1 SAH         0.0674
     34 H5'2       -0.4018    8.0945   21.9569 H         1 SAH         0.0674
     35 HB1        -3.1651   10.3470   25.9061 H         1 SAH         0.0339
     36 HB2        -2.1416   11.7509   25.5864 H         1 SAH         0.0339
     37 HG1        -3.3887   10.0172   23.3575 H         1 SAH         0.0967
     38 HG2        -2.2014   11.3130   23.1311 H         1 SAH         0.0967
     39 HA         -4.9936   11.3238   24.5801 H         1 SAH         0.0401
     40 HN61       -5.5228    5.2058   14.0157 H         1 SAH         0.4354
     41 HN62       -4.0415    4.5508   14.6604 H         1 SAH         0.4354
     42 HN1        -4.0048   13.9281   24.1130 H         1 SAH         0.3325
     43 HN2        -3.9018   12.6272   22.9507 H         1 SAH         0.3325
     44 HO3'       -4.3397    5.7638   23.4993 H         1 SAH         0.4124
     45 HO2'       -4.7154    4.7410   20.9582 H         1 SAH         0.4228
@<TRIPOS>BOND
     1    1   15 ar
     2    1   16 ar
     3    2   17 ar
     4    2   18 ar
     5    3    4 ar
     6    3    5 ar
     7    3   17 ar
     8    4   15 ar
     9    4   18 ar
    10    5   16 ar
    11    5   19 1
    12    6   14 1
    13    6   21 1
    14    6   22 2
    15    7    8 1
    16    7    9 1
    17    7   24 1
    18    8   10 1
    19    8   25 1
    20    9   11 1
    21    9   23 1
    22   10   18 1
    23   10   23 1
    24   11   26 1
    25   12   13 1
    26   12   14 1
    27   13   26 1
    28   14   20 1
    29    1   27 1
    30    2   28 1
    31    7   29 1
    32    8   30 1
    33    9   31 1
    34   10   32 1
    35   11   33 1
    36   11   34 1
    37   12   35 1
    38   12   36 1
    39   13   37 1
    40   13   38 1
    41   14   39 1
    42   19   40 1
    43   19   41 1
    44   20   42 1
    45   20   43 1
    46   24   44 1
    47   25   45 1
@<TRIPOS>SUBSTRUCTURE
     1 SAH         1 GROUP   0 A     ****
@<TRIPOS>MOLECULE
2-amino-4-[[5-(6-amino-1,2-dihydropurin-2-ylium-9-yl)-3,4-dihydroxy-tetrahydrofuran-2-yl]methylsulfanyl]butanoate
   46    48     1     0     0
SMALL
USER_CHARGES

@<TRIPOS>ATOM
      1 C8         -2.4550    5.6770   18.2020 C.ar      1 SAH         0.5737
      2 C5         -4.1920    5.7280   16.9550 C.ar      1 SAH        -0.1737
      3 C6         -5.1660    5.6140   15.9680 C.ar      1 SAH         0.4901
      4 C4         -4.5990    6.2900   18.1330 C.ar      1 SAH         0.6087
      5 C2         -6.6940    6.3660   17.5220 C.cat     1 SAH         0.2876
      6 C          -4.7190   12.6510   26.2500 C.2       1 SAH         0.8883
      7 C3'        -2.7810    6.5900   22.6150 C.3       1 SAH         0.0796
      8 C2'        -3.0230    5.6880   21.3550 C.3       1 SAH         0.1239
      9 C4'        -2.5480    8.0170   21.8880 C.3       1 SAH         0.1084
     10 C1'        -3.4830    6.7390   20.3130 C.3       1 SAH         0.3911
     11 C5'        -1.2660    8.7480   22.1870 C.3       1 SAH        -0.0549
     12 CB         -2.9430   11.1320   25.1840 C.3       1 SAH        -0.0541
     13 CG         -2.4920   10.4960   23.8630 C.3       1 SAH         0.0181
     14 CA         -4.2000   11.9820   24.9600 C.3       1 SAH         0.0171
     15 N7         -2.8580    5.2660   17.0360 N.ar      1 SAH        -0.5299
     16 N3         -5.8590    6.6230   18.5010 N.ar      1 SAH        -0.5041
     17 N1         -6.4250    5.9470   16.3060 N.pl3     1 SAH        -0.6246
     18 N9         -3.4680    6.3410   18.9140 N.pl3     1 SAH        -0.5833
     19 N6         -4.8690    5.1060   14.7690 N.pl3     1 SAH        -0.8166
     20 N          -3.9390   12.9490   23.9010 N.3       1 SAH        -0.9081
     21 OXT        -4.5570   12.0620   27.3540 O.co2     1 SAH        -0.8260
     22 O          -5.6170   13.5130   26.0830 O.co2     1 SAH        -0.8260
     23 O4'        -2.5910    7.8390   20.4400 O.3       1 SAH        -0.4117
     24 O3'        -3.8780    6.6110   23.5890 O.3       1 SAH        -0.6065
     25 O2'        -3.9020    4.5270   21.4480 O.3       1 SAH        -0.5836
     26 SD         -1.1570    9.2870   23.8890 S.3       1 SAH        -0.3199
     27 H8         -1.4903    5.5748   18.6654 H         1 SAH         0.1217
     28 H2         -7.7943    6.5351   17.7798 H         1 SAH         0.2303
     29 H3'        -1.8564    6.2700   23.1629 H         1 SAH         0.1177
     30 H2'        -2.0086    5.2911   21.0229 H         1 SAH         0.0797
     31 H4'        -3.4117    8.6988   22.1298 H         1 SAH         0.1152
     32 H1'        -4.4970    7.1271   20.5494 H         1 SAH         0.1248
     33 H5'1       -1.1740    9.6280   21.5204 H         1 SAH         0.0738
     34 H5'2       -0.4017    8.0945   21.9569 H         1 SAH         0.0738
     35 HB1        -3.1651   10.3470   25.9061 H         1 SAH         0.0627
     36 HB2        -2.1416   11.7509   25.5864 H         1 SAH         0.0627
     37 HG1        -3.3887   10.0172   23.3575 H         1 SAH         0.0609
     38 HG2        -2.2014   11.3130   23.1311 H         1 SAH         0.0609
     39 HA         -4.9936   11.3238   24.5801 H         1 SAH         0.0401
     40 H46        -7.1793    5.8651   15.5939 H         1 SAH         0.4814
     41 HN61       -4.5221    5.7187   14.0630 H         1 SAH         0.4815
     42 HN62       -5.0033    4.1298   14.6167 H         1 SAH         0.4815
     43 HN1        -3.0139   13.3280   23.8093 H         1 SAH         0.3396
     44 HN2        -4.7179   13.3654   23.4236 H         1 SAH         0.3396
     45 HO3'       -4.6662    6.2969   23.1207 H         1 SAH         0.4437
     46 HO2'       -3.7316    4.1049   22.3082 H         1 SAH         0.4446
@<TRIPOS>BOND
     1    1   15 ar
     2    1   18 ar
     3    2    3 ar
     4    2    4 ar
     5    2   15 ar
     6    3   17 ar
     7    3   19 1
     8    4   16 ar
     9    4   18 ar
    10    5   16 ar
    11    5   17 ar
    12    6   14 1
    13    6   21 1
    14    6   22 2
    15    7    8 1
    16    7    9 1
    17    7   24 1
    18    8   10 1
    19    8   25 1
    20    9   11 1
    21    9   23 1
    22   10   18 1
    23   10   23 1
    24   11   26 1
    25   12   13 1
    26   12   14 1
    27   13   26 1
    28   14   20 1
    29    1   27 1
    30    5   28 1
    31    7   29 1
    32    8   30 1
    33    9   31 1
    34   10   32 1
    35   11   33 1
    36   11   34 1
    37   12   35 1
    38   12   36 1
    39   13   37 1
    40   13   38 1
    41   14   39 1
    42   17   40 1
    43   19   41 1
    44   19   42 1
    45   20   43 1
    46   20   44 1
    47   24   45 1
    48   25   46 1
@<TRIPOS>SUBSTRUCTURE
     1 SAH         1 GROUP   0 A     ****
@<TRIPOS>MOLECULE
4-[[5-(6-amino-1,2,7,8-tetrahydropurine-2,8-diylium-9-yl)-3,4-dihydroxy-tetrahydrofuran-2-yl]methylsulfanyl]-2-azaniumyl-butanoate
   48    50     1     0     0
SMALL
USER_CHARGES

@<TRIPOS>ATOM
      1 C5         -4.1920    5.7280   16.9550 C.ar      1 SAH        -0.2070
      2 C6         -5.1660    5.6140   15.9680 C.ar      1 SAH         0.5030
      3 C4         -4.5990    6.2900   18.1330 C.ar      1 SAH         0.6838
      4 C2         -6.6940    6.3660   17.5220 C.cat     1 SAH         0.3543
      5 C8         -2.4550    5.6770   18.2020 C.cat     1 SAH         0.3153
      6 C          -4.7190   12.6510   26.2500 C.2       1 SAH         0.9563
      7 C3'        -2.7810    6.5900   22.6150 C.3       1 SAH         0.0901
      8 C2'        -3.0230    5.6880   21.3550 C.3       1 SAH         0.0854
      9 C4'        -2.5480    8.0170   21.8880 C.3       1 SAH         0.1351
     10 C1'        -3.4830    6.7390   20.3130 C.3       1 SAH         0.4057
     11 C5'        -1.2660    8.7480   22.1870 C.3       1 SAH        -0.0735
     12 CB         -2.9430   11.1320   25.1840 C.3       1 SAH        -0.0867
     13 CG         -2.4920   10.4960   23.8630 C.3       1 SAH        -0.0329
     14 CA         -4.2000   11.9820   24.9600 C.3       1 SAH        -0.1154
     15 N3         -5.8590    6.6230   18.5010 N.ar      1 SAH        -0.4929
     16 N7         -2.8580    5.2660   17.0360 N.pl3     1 SAH        -0.4951
     17 N1         -6.4250    5.9470   16.3060 N.pl3     1 SAH        -0.6002
     18 N9         -3.4680    6.3410   18.9140 N.pl3     1 SAH        -0.4813
     19 N6         -4.8690    5.1060   14.7690 N.pl3     1 SAH        -0.7806
     20 N          -3.9390   12.9490   23.9010 N.4       1 SAH        -0.8074
     21 OXT        -4.5570   12.0620   27.3540 O.co2     1 SAH        -0.7344
     22 O          -5.6170   13.5130   26.0830 O.co2     1 SAH        -0.7344
     23 O4'        -2.5910    7.8390   20.4400 O.3       1 SAH        -0.4189
     24 O3'        -3.8780    6.6110   23.5890 O.3       1 SAH        -0.5708
     25 O2'        -3.9020    4.5270   21.4480 O.3       1 SAH        -0.5728
     26 SD         -1.1570    9.2870   23.8890 S.3       1 SAH        -0.2132
     27 H2         -7.7959    6.5354   17.7806 H         1 SAH         0.2791
     28 H8         -1.4815    5.5477   18.6098 H         1 SAH         0.2943
     29 H3'        -1.8562    6.2700   23.1629 H         1 SAH         0.1236
     30 H2'        -2.0100    5.2923   21.0180 H         1 SAH         0.0675
     31 H4'        -3.4126    8.6987   22.1299 H         1 SAH         0.1382
     32 H1'        -4.5139    7.1293   20.5417 H         1 SAH         0.1660
     33 H5'1       -1.1741    9.6280   21.5204 H         1 SAH         0.0722
     34 H5'2       -0.4018    8.0945   21.9569 H         1 SAH         0.0722
     35 HB1        -2.1529   11.7600   25.5737 H         1 SAH         0.1074
     36 HB2        -3.1589   10.3608   25.9103 H         1 SAH         0.1074
     37 HG1        -2.1940   11.3108   23.1317 H         1 SAH         0.0531
     38 HG2        -3.3825   10.0158   23.3476 H         1 SAH         0.0531
     39 HA         -5.0027   11.3452   24.6175 H         1 SAH         0.0847
     40 H48        -2.3730    4.7528   16.3494 H         1 SAH         0.5279
     41 H47        -7.1789    5.8673   15.5928 H         1 SAH         0.5206
     42 HN61       -5.6060    4.9702   14.1107 H         1 SAH         0.5002
     43 HN62       -3.9191    4.8775   14.5676 H         1 SAH         0.5002
     44 HN1        -4.7992   13.4369   23.6479 H         1 SAH         0.4444
     45 HN2        -3.5758   12.4756   23.0725 H         1 SAH         0.4444
     46 H46        -3.2520   13.6371   24.2122 H         1 SAH         0.4444
     47 HO3'       -4.6661    6.2969   23.1207 H         1 SAH         0.4397
     48 HO2'       -3.7319    4.1045   22.3082 H         1 SAH         0.4478
@<TRIPOS>BOND
     1    1    2 ar
     2    1    3 ar
     3    1   16 ar
     4    2   17 ar
     5    2   19 1
     6    3   15 ar
     7    3   18 ar
     8    4   15 ar
     9    4   17 ar
    10    5   16 ar
    11    5   18 ar
    12    6   14 1
    13    6   21 1
    14    6   22 2
    15    7    8 1
    16    7    9 1
    17    7   24 1
    18    8   10 1
    19    8   25 1
    20    9   11 1
    21    9   23 1
    22   10   18 1
    23   10   23 1
    24   11   26 1
    25   12   13 1
    26   12   14 1
    27   13   26 1
    28   14   20 1
    29    4   27 1
    30    5   28 1
    31    7   29 1
    32    8   30 1
    33    9   31 1
    34   10   32 1
    35   11   33 1
    36   11   34 1
    37   12   35 1
    38   12   36 1
    39   13   37 1
    40   13   38 1
    41   14   39 1
    42   16   40 1
    43   17   41 1
    44   19   42 1
    45   19   43 1
    46   20   44 1
    47   20   45 1
    48   20   46 1
    49   24   47 1
    50   25   48 1
@<TRIPOS>SUBSTRUCTURE
     1 SAH         1 GROUP   0 A     ****
@<TRIPOS>MOLECULE
2-amino-4-[[5-(6-aminopurin-9-yl)-3,4-dihydroxy-tetrahydrofuran-2-yl]methylsulfanyl]butanoic acid
   46    48     1     0     0
SMALL
USER_CHARGES

@<TRIPOS>ATOM
      1 C2         -6.6940    6.3660   17.5220 C.ar      1 SAH         0.6629
      2 C8         -2.4550    5.6770   18.2020 C.ar      1 SAH         0.5691
      3 C5         -4.1920    5.7280   16.9550 C.ar      1 SAH         0.0088
      4 C4         -4.5990    6.2900   18.1330 C.ar      1 SAH         0.5212
      5 C6         -5.1660    5.6140   15.9680 C.ar      1 SAH         0.5212
      6 C          -4.7190   12.6510   26.2500 C.2       1 SAH         0.3291
      7 C3'        -2.7810    6.5900   22.6150 C.3       1 SAH         0.1111
      8 C2'        -3.0230    5.6880   21.3550 C.3       1 SAH         0.1111
      9 C4'        -2.5480    8.0170   21.8880 C.3       1 SAH         0.1111
     10 C1'        -3.4830    6.7390   20.3130 C.3       1 SAH         0.2693
     11 C5'        -1.2660    8.7480   22.1870 C.3       1 SAH         0.2607
     12 CB         -2.9430   11.1320   25.1840 C.3       1 SAH         0.0786
     13 CG         -2.4920   10.4960   23.8630 C.3       1 SAH         0.2607
     14 CA         -4.2000   11.9820   24.9600 C.3       1 SAH         0.1475
     15 N3         -5.8590    6.6230   18.5010 N.ar      1 SAH        -0.5260
     16 N1         -6.4250    5.9470   16.3060 N.ar      1 SAH        -0.5260
     17 N7         -2.8580    5.2660   17.0360 N.ar      1 SAH        -0.4271
     18 N9         -3.4680    6.3410   18.9140 N.pl3     1 SAH        -0.5033
     19 N6         -4.8690    5.1060   14.7690 N.pl3     1 SAH        -0.6025
     20 N          -3.9390   12.9490   23.9010 N.3       1 SAH        -0.5678
     21 O          -5.6170   13.5130   26.0830 O.2       1 SAH        -0.1890
     22 O4'        -2.5910    7.8390   20.4400 O.3       1 SAH        -0.1436
     23 OXT        -4.5570   12.0620   27.3540 O.3       1 SAH        -0.2911
     24 O3'        -3.8780    6.6110   23.5890 O.3       1 SAH        -0.2728
     25 O2'        -3.9020    4.5270   21.4480 O.3       1 SAH        -0.2728
     26 SD         -1.1570    9.2870   23.8890 S.3       1 SAH        -0.3642
     27 H2         -7.7533    6.5214   17.7474 H         1 SAH        -0.1369
     28 H8         -1.4704    5.5518   18.6283 H         1 SAH        -0.1292
     29 H3'        -1.8571    6.2691   23.1639 H         1 SAH        -0.0393
     30 H2'        -2.0062    5.2896   21.0209 H         1 SAH        -0.0393
     31 H4'        -3.4148    8.6984   22.1287 H         1 SAH        -0.0393
     32 H1'        -4.5209    7.1031   20.5138 H         1 SAH        -0.0393
     33 H5'1       -1.1741    9.6280   21.5204 H         1 SAH        -0.0393
     34 H5'2       -0.4018    8.0945   21.9569 H         1 SAH        -0.0393
     35 HB1        -3.1671   10.3542   25.9039 H         1 SAH        -0.0393
     36 HB2        -2.1533   11.7607   25.5758 H         1 SAH        -0.0393
     37 HG1        -3.3835   10.0115   23.3520 H         1 SAH        -0.0393
     38 HG2        -2.2026   11.3125   23.1277 H         1 SAH        -0.0393
     39 HA         -5.0038   11.3573   24.5882 H         1 SAH        -0.0393
     40 HN61       -5.5228    5.2058   14.0157 H         1 SAH         0.2048
     41 HN62       -4.0415    4.5508   14.6604 H         1 SAH         0.2048
     42 HN1        -3.7850   12.6175   22.9633 H         1 SAH         0.2048
     43 HN2        -3.7159   13.8984   24.1500 H         1 SAH         0.2048
     44 HXT        -3.8224   11.4134   27.3727 H         1 SAH         0.2010
     45 HO3'       -4.3397    5.7638   23.4993 H         1 SAH         0.2010
     46 HO2'       -4.7154    4.7410   20.9582 H         1 SAH         0.2010
@<TRIPOS>BOND
     1    1   15 ar
     2    1   16 ar
     3    2   17 ar
     4    2   18 ar
     5    3    4 ar
     6    3    5 ar
     7    3   17 ar
     8    4   15 ar
     9    4   18 ar
    10    5   16 ar
    11    5   19 1
    12    6   14 1
    13    6   21 2
    14    6   23 1
    15    7    8 1
    16    7    9 1
    17    7   24 1
    18    8   10 1
    19    8   25 1
    20    9   11 1
    21    9   22 1
    22   10   18 1
    23   10   22 1
    24   11   26 1
    25   12   13 1
    26   12   14 1
    27   13   26 1
    28   14   20 1
    29    1   27 1
    30    2   28 1
    31    7   29 1
    32    8   30 1
    33    9   31 1
    34   10   32 1
    35   11   33 1
    36   11   34 1
    37   12   35 1
    38   12   36 1
    39   13   37 1
    40   13   38 1
    41   14   39 1
    42   19   40 1
    43   19   41 1
    44   20   42 1
    45   20   43 1
    46   23   44 1
    47   24   45 1
    48   25   46 1
@<TRIPOS>SUBSTRUCTURE
     1 SAH         1 GROUP   0 A     ****
@<TRIPOS>MOLECULE
2-amino-4-[[5-(6-amino-1,2-dihydropurin-2-ylium-9-yl)-3,4-dihydroxy-tetrahydrofuran-2-yl]methylsulfanyl]butanoic acid
   47    49     1     0     0
SMALL
USER_CHARGES

@<TRIPOS>ATOM
      1 C8         -2.4550    5.6770   18.2020 C.ar      1 SAH         0.5691
      2 C5         -4.1920    5.7280   16.9550 C.ar      1 SAH         0.0540
      3 C6         -5.1660    5.6140   15.9680 C.ar      1 SAH         0.1640
      4 C4         -4.5990    6.2900   18.1330 C.ar      1 SAH         0.5265
      5 C2         -6.6940    6.3660   17.5220 C.cat     1 SAH         0.2226
      6 C          -4.7190   12.6510   26.2500 C.2       1 SAH         0.3291
      7 C3'        -2.7810    6.5900   22.6150 C.3       1 SAH         0.1111
      8 C2'        -3.0230    5.6880   21.3550 C.3       1 SAH         0.1111
      9 C4'        -2.5480    8.0170   21.8880 C.3       1 SAH         0.1111
     10 C1'        -3.4830    6.7390   20.3130 C.3       1 SAH         0.2693
     11 C5'        -1.2660    8.7480   22.1870 C.3       1 SAH         0.2607
     12 CB         -2.9430   11.1320   25.1840 C.3       1 SAH         0.0786
     13 CG         -2.4920   10.4960   23.8630 C.3       1 SAH         0.2607
     14 CA         -4.2000   11.9820   24.9600 C.3       1 SAH         0.1475
     15 N7         -2.8580    5.2660   17.0360 N.ar      1 SAH        -0.4283
     16 N3         -5.8590    6.6230   18.5010 N.ar      1 SAH        -0.4283
     17 N1         -6.4250    5.9470   16.3060 N.pl3     1 SAH        -0.3688
     18 N9         -3.4680    6.3410   18.9140 N.pl3     1 SAH        -0.4626
     19 N6         -4.8690    5.1060   14.7690 N.pl3     1 SAH        -0.4916
     20 N          -3.9390   12.9490   23.9010 N.3       1 SAH        -0.5678
     21 O          -5.6170   13.5130   26.0830 O.2       1 SAH        -0.1890
     22 O4'        -2.5910    7.8390   20.4400 O.3       1 SAH        -0.1436
     23 OXT        -4.5570   12.0620   27.3540 O.3       1 SAH        -0.2911
     24 O3'        -3.8780    6.6110   23.5890 O.3       1 SAH        -0.2728
     25 O2'        -3.9020    4.5270   21.4480 O.3       1 SAH        -0.2728
     26 SD         -1.1570    9.2870   23.8890 S.3       1 SAH        -0.3642
     27 H8         -1.4903    5.5748   18.6654 H         1 SAH        -0.1292
     28 H2         -7.7943    6.5351   17.7798 H         1 SAH         0.0000
     29 H3'        -1.8564    6.2700   23.1629 H         1 SAH        -0.0393
     30 H2'        -2.0086    5.2911   21.0229 H         1 SAH        -0.0393
     31 H4'        -3.4117    8.6988   22.1298 H         1 SAH        -0.0393
     32 H1'        -4.4970    7.1271   20.5494 H         1 SAH        -0.0393
     33 H5'1       -1.1740    9.6280   21.5204 H         1 SAH        -0.0393
     34 H5'2       -0.4017    8.0945   21.9569 H         1 SAH        -0.0393
     35 HB1        -3.1671   10.3542   25.9039 H         1 SAH        -0.0393
     36 HB2        -2.1533   11.7607   25.5758 H         1 SAH        -0.0393
     37 HG1        -3.3835   10.0115   23.3520 H         1 SAH        -0.0393
     38 HG2        -2.2026   11.3125   23.1277 H         1 SAH        -0.0393
     39 HA         -5.0038   11.3573   24.5882 H         1 SAH        -0.0393
     40 H47        -7.1793    5.8651   15.5939 H         1 SAH         0.2048
     41 HN61       -4.5221    5.7187   14.0630 H         1 SAH         0.2048
     42 HN62       -5.0033    4.1298   14.6167 H         1 SAH         0.2048
     43 HN1        -3.0002   13.2862   23.7673 H         1 SAH         0.2048
     44 HN2        -4.7159   13.4135   23.4608 H         1 SAH         0.2048
     45 HXT        -4.0489   11.2252   27.3056 H         1 SAH         0.2010
     46 HO3'       -4.6662    6.2969   23.1207 H         1 SAH         0.2010
     47 HO2'       -3.7316    4.1049   22.3082 H         1 SAH         0.2010
@<TRIPOS>BOND
     1    1   15 ar
     2    1   18 ar
     3    2    3 ar
     4    2    4 ar
     5    2   15 ar
     6    3   17 ar
     7    3   19 1
     8    4   16 ar
     9    4   18 ar
    10    5   16 ar
    11    5   17 ar
    12    6   14 1
    13    6   21 2
    14    6   23 1
    15    7    8 1
    16    7    9 1
    17    7   24 1
    18    8   10 1
    19    8   25 1
    20    9   11 1
    21    9   22 1
    22   10   18 1
    23   10   22 1
    24   11   26 1
    25   12   13 1
    26   12   14 1
    27   13   26 1
    28   14   20 1
    29    1   27 1
    30    5   28 1
    31    7   29 1
    32    8   30 1
    33    9   31 1
    34   10   32 1
    35   11   33 1
    36   11   34 1
    37   12   35 1
    38   12   36 1
    39   13   37 1
    40   13   38 1
    41   14   39 1
    42   17   40 1
    43   19   41 1
    44   19   42 1
    45   20   43 1
    46   20   44 1
    47   23   45 1
    48   24   46 1
    49   25   47 1
@<TRIPOS>SUBSTRUCTURE
     1 SAH         1 GROUP   0 A     ****
