@<TRIPOS>MOLECULE
SAH
47   49    1
SMALL
USER_CHARGES


@<TRIPOS>ATOM
      1 C2         -6.6940    6.3660   17.5220 C.ar      1 SAH         0.0000 
      2 C8         -2.4550    5.6770   18.2020 C.ar      1 SAH         0.0000 
      3 C5         -4.1920    5.7280   16.9550 C.ar      1 SAH         0.0000 
      4 C4         -4.5990    6.2900   18.1330 C.ar      1 SAH         0.0000 
      5 C6         -5.1660    5.6140   15.9680 C.ar      1 SAH         0.0000 
      6 C          -4.7190   12.6510   26.2500 C.2       1 SAH         0.0000 
      7 C3'        -2.7810    6.5900   22.6150 C.3       1 SAH         0.0000 
      8 C2'        -3.0230    5.6880   21.3550 C.3       1 SAH         0.0000 
      9 C4'        -2.5480    8.0170   21.8880 C.3       1 SAH         0.0000 
     10 C1'        -3.4830    6.7390   20.3130 C.3       1 SAH         0.0000 
     11 C5'        -1.2660    8.7480   22.1870 C.3       1 SAH         0.0000 
     12 CB         -2.9430   11.1320   25.1840 C.3       1 SAH         0.0000 
     13 CG         -2.4920   10.4960   23.8630 C.3       1 SAH         0.0000 
     14 CA         -4.2000   11.9820   24.9600 C.3       1 SAH         0.0000 
     15 N3         -5.8590    6.6230   18.5010 N.ar      1 SAH         0.0000 
     16 N1         -6.4250    5.9470   16.3060 N.pl3     1 SAH         0.0000 
     17 N7         -2.8580    5.2660   17.0360 N.2       1 SAH         0.0000 
     18 N9         -3.4680    6.3410   18.9140 N.pl3     1 SAH         0.0000 
     19 N6         -4.8690    5.1060   14.7690 N.pl3     1 SAH         0.0000 
     20 N          -3.9390   12.9490   23.9010 N.4       1 SAH         0.0000 
     21 O          -5.6170   13.5130   26.0830 O.2       1 SAH         0.0000 
     22 O4'        -2.5910    7.8390   20.4400 O.3       1 SAH         0.0000 
     23 OXT        -4.5570   12.0620   27.3540 O         1 SAH         0.0000 
     24 O3'        -3.8780    6.6110   23.5890 O.3       1 SAH         0.0000 
     25 O2'        -3.9020    4.5270   21.4480 O.3       1 SAH         0.0000 
     26 SD         -1.1570    9.2870   23.8890 S.3       1 SAH         0.0000 
     27 H2         -7.7533    6.5214   17.7474 H         1 SAH         0.0000 
     28 H8         -1.4704    5.5518   18.6283 H         1 SAH         0.0000 
     29 H3'        -2.0188    6.2137   23.3131 H         1 SAH         0.0000 
     30 H2'        -2.1538    5.0605   21.1086 H         1 SAH         0.0000 
     31 H4'        -3.3396    8.7048   22.2201 H         1 SAH         0.0000 
     32 H1'        -4.5349    7.0076   20.4900 H         1 SAH         0.0000 
     33 H5'1       -0.4110    8.0848   21.9890 H         1 SAH         0.0000 
     34 H5'2       -1.1944    9.6396   21.5468 H         1 SAH         0.0000 
     35 HB1        -3.1687   10.3405   25.9138 H         1 SAH         0.0000 
     36 HB2        -2.1395   11.7733   25.5754 H         1 SAH         0.0000 
     37 HG1        -3.3384    9.9635   23.4047 H         1 SAH         0.0000 
     38 HG2        -2.1397   11.2821   23.1790 H         1 SAH         0.0000 
     39 HA         -5.0139   11.3416   24.5893 H         1 SAH         0.0000 
     40 HN61       -3.8288    4.8443   14.5248 H         1 SAH         0.0000 
     41 HN62       -5.6646    4.9493   14.0257 H         1 SAH         0.0000 
     42 HN1        -4.8369   13.5623   23.7351 H         1 SAH         0.0000 
     43 HN2        -3.6821   12.4165   22.9734 H         1 SAH         0.0000 
     44 HO3'       -4.1338    5.6995   24.1491 H         1 SAH         0.0000 
     45 HO2'       -3.6711    3.7177   22.1563 H         1 SAH         0.0000 
     46 H46        -3.1010   13.5979   24.1954 H         1 SAH         0.0000 
     47 H47        -7.2303    5.8676   15.5609 H         1 SAH         0.0000 
@<TRIPOS>BOND
     1    1   15 ar   
     2    1   16 ar   
     3    1   27 1    
     4    2   17 ar   
     5    2   18 ar   
     6    2   28 1    
     7    3    4 ar   
     8    3    5 ar   
     9    3   17 ar   
    10    4   15 ar   
    11    4   18 ar   
    12    5   16 ar   
    13    5   19 1    
    14    6   14 1    
    15    6   21 2    
    16    6   23 1    
    17    7    8 1    
    18    7    9 1    
    19    7   24 1    
    20    7   29 1    
    21    8   10 1    
    22    8   25 1    
    23    8   30 1    
    24    9   11 1    
    25    9   22 1    
    26    9   31 1    
    27   10   18 1    
    28   10   22 1    
    29   10   32 1    
    30   11   26 1    
    31   11   33 1    
    32   11   34 1    
    33   12   13 1    
    34   12   14 1    
    35   12   35 1    
    36   12   36 1    
    37   13   26 1    
    38   13   37 1    
    39   13   38 1    
    40   14   20 1    
    41   14   39 1    
    42   16   47 1    
    43   19   40 1    
    44   19   41 1    
    45   20   42 1    
    46   20   43 1    
    47   20   46 1    
    48   24   44 1    
    49   25   45 1    
@<TRIPOS>SUBSTRUCTURE
     1 SAH         1 GROUP             0       ****    0 ROOT    
@<TRIPOS>MOLECULE
SAH
46   48    1
SMALL
USER_CHARGES


@<TRIPOS>ATOM
      1 C2         -6.6940    6.3660   17.5220 C.ar      1 SAH         0.0000 
      2 C8         -2.4550    5.6770   18.2020 C.ar      1 SAH         0.0000 
      3 C5         -4.1920    5.7280   16.9550 C.ar      1 SAH         0.0000 
      4 C4         -4.5990    6.2900   18.1330 C.ar      1 SAH         0.0000 
      5 C6         -5.1660    5.6140   15.9680 C.ar      1 SAH         0.0000 
      6 C          -4.7190   12.6510   26.2500 C.2       1 SAH         0.0000 
      7 C3'        -2.7810    6.5900   22.6150 C.3       1 SAH         0.0000 
      8 C2'        -3.0230    5.6880   21.3550 C.3       1 SAH         0.0000 
      9 C4'        -2.5480    8.0170   21.8880 C.3       1 SAH         0.0000 
     10 C1'        -3.4830    6.7390   20.3130 C.3       1 SAH         0.0000 
     11 C5'        -1.2660    8.7480   22.1870 C.3       1 SAH         0.0000 
     12 CB         -2.9430   11.1320   25.1840 C.3       1 SAH         0.0000 
     13 CG         -2.4920   10.4960   23.8630 C.3       1 SAH         0.0000 
     14 CA         -4.2000   11.9820   24.9600 C.3       1 SAH         0.0000 
     15 N3         -5.8590    6.6230   18.5010 N.ar      1 SAH         0.0000 
     16 N1         -6.4250    5.9470   16.3060 N.ar      1 SAH         0.0000 
     17 N7         -2.8580    5.2660   17.0360 N.2       1 SAH         0.0000 
     18 N9         -3.4680    6.3410   18.9140 N.pl3     1 SAH         0.0000 
     19 N6         -4.8690    5.1060   14.7690 N.pl3     1 SAH         0.0000 
     20 N          -3.9390   12.9490   23.9010 N.4       1 SAH         0.0000 
     21 O          -5.6170   13.5130   26.0830 O.2       1 SAH         0.0000 
     22 O4'        -2.5910    7.8390   20.4400 O.3       1 SAH         0.0000 
     23 OXT        -4.5570   12.0620   27.3540 O         1 SAH         0.0000 
     24 O3'        -3.8780    6.6110   23.5890 O.3       1 SAH         0.0000 
     25 O2'        -3.9020    4.5270   21.4480 O.3       1 SAH         0.0000 
     26 SD         -1.1570    9.2870   23.8890 S.3       1 SAH         0.0000 
     27 H2         -7.7533    6.5214   17.7474 H         1 SAH         0.0000 
     28 H8         -1.4704    5.5518   18.6283 H         1 SAH         0.0000 
     29 H3'        -2.0188    6.2137   23.3131 H         1 SAH         0.0000 
     30 H2'        -2.1538    5.0605   21.1086 H         1 SAH         0.0000 
     31 H4'        -3.3396    8.7048   22.2201 H         1 SAH         0.0000 
     32 H1'        -4.5349    7.0076   20.4900 H         1 SAH         0.0000 
     33 H5'1       -0.4110    8.0848   21.9890 H         1 SAH         0.0000 
     34 H5'2       -1.1944    9.6396   21.5468 H         1 SAH         0.0000 
     35 HB1        -3.1687   10.3405   25.9138 H         1 SAH         0.0000 
     36 HB2        -2.1395   11.7733   25.5754 H         1 SAH         0.0000 
     37 HG1        -3.3384    9.9635   23.4047 H         1 SAH         0.0000 
     38 HG2        -2.1397   11.2821   23.1790 H         1 SAH         0.0000 
     39 HA         -5.0139   11.3416   24.5893 H         1 SAH         0.0000 
     40 HN61       -3.8288    4.8443   14.5248 H         1 SAH         0.0000 
     41 HN62       -5.6646    4.9493   14.0257 H         1 SAH         0.0000 
     42 HN1        -4.8369   13.5623   23.7351 H         1 SAH         0.0000 
     43 HN2        -3.6821   12.4165   22.9734 H         1 SAH         0.0000 
     44 HO3'       -4.1338    5.6995   24.1491 H         1 SAH         0.0000 
     45 HO2'       -3.6711    3.7177   22.1563 H         1 SAH         0.0000 
     46 H46        -3.1010   13.5979   24.1954 H         1 SAH         0.0000 
@<TRIPOS>BOND
     1    1   15 ar   
     2    1   16 ar   
     3    1   27 1    
     4    2   17 ar   
     5    2   18 ar   
     6    2   28 1    
     7    3    4 ar   
     8    3    5 ar   
     9    3   17 ar   
    10    4   15 ar   
    11    4   18 ar   
    12    5   16 ar   
    13    5   19 1    
    14    6   14 1    
    15    6   21 2    
    16    6   23 1    
    17    7    8 1    
    18    7    9 1    
    19    7   24 1    
    20    7   29 1    
    21    8   10 1    
    22    8   25 1    
    23    8   30 1    
    24    9   11 1    
    25    9   22 1    
    26    9   31 1    
    27   10   18 1    
    28   10   22 1    
    29   10   32 1    
    30   11   26 1    
    31   11   33 1    
    32   11   34 1    
    33   12   13 1    
    34   12   14 1    
    35   12   35 1    
    36   12   36 1    
    37   13   26 1    
    38   13   37 1    
    39   13   38 1    
    40   14   20 1    
    41   14   39 1    
    42   19   40 1    
    43   19   41 1    
    44   20   42 1    
    45   20   43 1    
    46   20   46 1    
    47   24   44 1    
    48   25   45 1    
@<TRIPOS>SUBSTRUCTURE
     1 SAH         1 GROUP             0       ****    0 ROOT    
@<TRIPOS>MOLECULE
SAH
47   49    1
SMALL
USER_CHARGES


@<TRIPOS>ATOM
      1 C2         -6.6940    6.3660   17.5220 C.ar      1 SAH         0.0000 
      2 C8         -2.4550    5.6770   18.2020 C.ar      1 SAH         0.0000 
      3 C5         -4.1920    5.7280   16.9550 C.ar      1 SAH         0.0000 
      4 C4         -4.5990    6.2900   18.1330 C.ar      1 SAH         0.0000 
      5 C6         -5.1660    5.6140   15.9680 C.ar      1 SAH         0.0000 
      6 C          -4.7190   12.6510   26.2500 C.2       1 SAH         0.0000 
      7 C3'        -2.7810    6.5900   22.6150 C.3       1 SAH         0.0000 
      8 C2'        -3.0230    5.6880   21.3550 C.3       1 SAH         0.0000 
      9 C4'        -2.5480    8.0170   21.8880 C.3       1 SAH         0.0000 
     10 C1'        -3.4830    6.7390   20.3130 C.3       1 SAH         0.0000 
     11 C5'        -1.2660    8.7480   22.1870 C.3       1 SAH         0.0000 
     12 CB         -2.9430   11.1320   25.1840 C.3       1 SAH         0.0000 
     13 CG         -2.4920   10.4960   23.8630 C.3       1 SAH         0.0000 
     14 CA         -4.2000   11.9820   24.9600 C.3       1 SAH         0.0000 
     15 N3         -5.8590    6.6230   18.5010 N.ar      1 SAH         0.0000 
     16 N1         -6.4250    5.9470   16.3060 N.ar      1 SAH         0.0000 
     17 N7         -2.8580    5.2660   17.0360 N.pl3     1 SAH         0.0000 
     18 N9         -3.4680    6.3410   18.9140 N.pl3     1 SAH         0.0000 
     19 N6         -4.8690    5.1060   14.7690 N.pl3     1 SAH         0.0000 
     20 N          -3.9390   12.9490   23.9010 N.4       1 SAH         0.0000 
     21 O          -5.6170   13.5130   26.0830 O.2       1 SAH         0.0000 
     22 O4'        -2.5910    7.8390   20.4400 O.3       1 SAH         0.0000 
     23 OXT        -4.5570   12.0620   27.3540 O         1 SAH         0.0000 
     24 O3'        -3.8780    6.6110   23.5890 O.3       1 SAH         0.0000 
     25 O2'        -3.9020    4.5270   21.4480 O.3       1 SAH         0.0000 
     26 SD         -1.1570    9.2870   23.8890 S.3       1 SAH         0.0000 
     27 H2         -7.7533    6.5214   17.7474 H         1 SAH         0.0000 
     28 H8         -1.4704    5.5518   18.6283 H         1 SAH         0.0000 
     29 H3'        -2.0188    6.2137   23.3131 H         1 SAH         0.0000 
     30 H2'        -2.1538    5.0605   21.1086 H         1 SAH         0.0000 
     31 H4'        -3.3396    8.7048   22.2201 H         1 SAH         0.0000 
     32 H1'        -4.5349    7.0076   20.4900 H         1 SAH         0.0000 
     33 H5'1       -0.4110    8.0848   21.9890 H         1 SAH         0.0000 
     34 H5'2       -1.1944    9.6396   21.5468 H         1 SAH         0.0000 
     35 HB1        -3.1687   10.3405   25.9138 H         1 SAH         0.0000 
     36 HB2        -2.1395   11.7733   25.5754 H         1 SAH         0.0000 
     37 HG1        -3.3384    9.9635   23.4047 H         1 SAH         0.0000 
     38 HG2        -2.1397   11.2821   23.1790 H         1 SAH         0.0000 
     39 HA         -5.0139   11.3416   24.5893 H         1 SAH         0.0000 
     40 HN61       -3.8288    4.8443   14.5248 H         1 SAH         0.0000 
     41 HN62       -5.6646    4.9493   14.0257 H         1 SAH         0.0000 
     42 HN1        -4.8369   13.5623   23.7351 H         1 SAH         0.0000 
     43 HN2        -3.6821   12.4165   22.9734 H         1 SAH         0.0000 
     44 HO3'       -4.1338    5.6995   24.1491 H         1 SAH         0.0000 
     45 HO2'       -3.6711    3.7177   22.1563 H         1 SAH         0.0000 
     46 H46        -3.1010   13.5979   24.1954 H         1 SAH         0.0000 
     47 H47        -2.1757    4.6969   16.3874 H         1 SAH         0.0000 
@<TRIPOS>BOND
     1    1   15 ar   
     2    1   16 ar   
     3    1   27 1    
     4    2   17 ar   
     5    2   18 ar   
     6    2   28 1    
     7    3    4 ar   
     8    3    5 ar   
     9    3   17 ar   
    10    4   15 ar   
    11    4   18 ar   
    12    5   16 ar   
    13    5   19 1    
    14    6   14 1    
    15    6   21 2    
    16    6   23 1    
    17    7    8 1    
    18    7    9 1    
    19    7   24 1    
    20    7   29 1    
    21    8   10 1    
    22    8   25 1    
    23    8   30 1    
    24    9   11 1    
    25    9   22 1    
    26    9   31 1    
    27   10   18 1    
    28   10   22 1    
    29   10   32 1    
    30   11   26 1    
    31   11   33 1    
    32   11   34 1    
    33   12   13 1    
    34   12   14 1    
    35   12   35 1    
    36   12   36 1    
    37   13   26 1    
    38   13   37 1    
    39   13   38 1    
    40   14   20 1    
    41   14   39 1    
    42   17   47 1    
    43   19   40 1    
    44   19   41 1    
    45   20   42 1    
    46   20   43 1    
    47   20   46 1    
    48   24   44 1    
    49   25   45 1    
@<TRIPOS>SUBSTRUCTURE
     1 SAH         1 GROUP             0       ****    0 ROOT    
@<TRIPOS>MOLECULE
SAH
48   50    1
SMALL
USER_CHARGES


@<TRIPOS>ATOM
      1 C2         -6.6940    6.3660   17.5220 C.ar      1 SAH         0.0000 
      2 C8         -2.4550    5.6770   18.2020 C.ar      1 SAH         0.0000 
      3 C5         -4.1920    5.7280   16.9550 C.ar      1 SAH         0.0000 
      4 C4         -4.5990    6.2900   18.1330 C.ar      1 SAH         0.0000 
      5 C6         -5.1660    5.6140   15.9680 C.ar      1 SAH         0.0000 
      6 C          -4.7190   12.6510   26.2500 C.2       1 SAH         0.0000 
      7 C3'        -2.7810    6.5900   22.6150 C.3       1 SAH         0.0000 
      8 C2'        -3.0230    5.6880   21.3550 C.3       1 SAH         0.0000 
      9 C4'        -2.5480    8.0170   21.8880 C.3       1 SAH         0.0000 
     10 C1'        -3.4830    6.7390   20.3130 C.3       1 SAH         0.0000 
     11 C5'        -1.2660    8.7480   22.1870 C.3       1 SAH         0.0000 
     12 CB         -2.9430   11.1320   25.1840 C.3       1 SAH         0.0000 
     13 CG         -2.4920   10.4960   23.8630 C.3       1 SAH         0.0000 
     14 CA         -4.2000   11.9820   24.9600 C.3       1 SAH         0.0000 
     15 N3         -5.8590    6.6230   18.5010 N.ar      1 SAH         0.0000 
     16 N1         -6.4250    5.9470   16.3060 N.pl3     1 SAH         0.0000 
     17 N7         -2.8580    5.2660   17.0360 N.2       1 SAH         0.0000 
     18 N9         -3.4680    6.3410   18.9140 N.pl3     1 SAH         0.0000 
     19 N6         -4.8690    5.1060   14.7690 N.pl3     1 SAH         0.0000 
     20 N          -3.9390   12.9490   23.9010 N.4       1 SAH         0.0000 
     21 O          -5.6170   13.5130   26.0830 O.co2     1 SAH         0.0000 
     22 O4'        -2.5910    7.8390   20.4400 O.3       1 SAH         0.0000 
     23 OXT        -4.5570   12.0620   27.3540 O.co2     1 SAH         0.0000 
     24 O3'        -3.8780    6.6110   23.5890 O.3       1 SAH         0.0000 
     25 O2'        -3.9020    4.5270   21.4480 O.3       1 SAH         0.0000 
     26 SD         -1.1570    9.2870   23.8890 S.3       1 SAH         0.0000 
     27 H2         -7.7533    6.5214   17.7474 H         1 SAH         0.0000 
     28 H8         -1.4704    5.5518   18.6283 H         1 SAH         0.0000 
     29 H3'        -2.0188    6.2137   23.3131 H         1 SAH         0.0000 
     30 H2'        -2.1538    5.0605   21.1086 H         1 SAH         0.0000 
     31 H4'        -3.3396    8.7048   22.2201 H         1 SAH         0.0000 
     32 H1'        -4.5349    7.0076   20.4900 H         1 SAH         0.0000 
     33 H5'1       -0.4110    8.0848   21.9890 H         1 SAH         0.0000 
     34 H5'2       -1.1944    9.6396   21.5468 H         1 SAH         0.0000 
     35 HB1        -3.1687   10.3405   25.9138 H         1 SAH         0.0000 
     36 HB2        -2.1395   11.7733   25.5754 H         1 SAH         0.0000 
     37 HG1        -3.3384    9.9635   23.4047 H         1 SAH         0.0000 
     38 HG2        -2.1397   11.2821   23.1790 H         1 SAH         0.0000 
     39 HA         -5.0139   11.3416   24.5893 H         1 SAH         0.0000 
     40 HN61       -3.8288    4.8443   14.5248 H         1 SAH         0.0000 
     41 HN62       -5.6646    4.9493   14.0257 H         1 SAH         0.0000 
     42 HN1        -4.8369   13.5623   23.7351 H         1 SAH         0.0000 
     43 HN2        -3.6821   12.4165   22.9734 H         1 SAH         0.0000 
     44 HXT        -4.9210   12.5250   28.2830 H         1 SAH         0.0000 
     45 HO3'       -4.1338    5.6995   24.1491 H         1 SAH         0.0000 
     46 HO2'       -3.6711    3.7177   22.1563 H         1 SAH         0.0000 
     47 H47        -3.1010   13.5979   24.1954 H         1 SAH         0.0000 
     48 H48        -7.2303    5.8676   15.5609 H         1 SAH         0.0000 
@<TRIPOS>BOND
     1    1   15 ar   
     2    1   16 ar   
     3    1   27 1    
     4    2   17 ar   
     5    2   18 ar   
     6    2   28 1    
     7    3    4 ar   
     8    3    5 ar   
     9    3   17 ar   
    10    4   15 ar   
    11    4   18 ar   
    12    5   16 ar   
    13    5   19 1    
    14    6   14 1    
    15    6   21 2    
    16    6   23 1    
    17    7    8 1    
    18    7    9 1    
    19    7   24 1    
    20    7   29 1    
    21    8   10 1    
    22    8   25 1    
    23    8   30 1    
    24    9   11 1    
    25    9   22 1    
    26    9   31 1    
    27   10   18 1    
    28   10   22 1    
    29   10   32 1    
    30   11   26 1    
    31   11   33 1    
    32   11   34 1    
    33   12   13 1    
    34   12   14 1    
    35   12   35 1    
    36   12   36 1    
    37   13   26 1    
    38   13   37 1    
    39   13   38 1    
    40   14   20 1    
    41   14   39 1    
    42   16   48 1    
    43   19   40 1    
    44   19   41 1    
    45   20   42 1    
    46   20   43 1    
    47   20   47 1    
    48   23   44 1    
    49   24   45 1    
    50   25   46 1    
@<TRIPOS>SUBSTRUCTURE
     1 SAH         1 GROUP             0       ****    0 ROOT    
@<TRIPOS>MOLECULE
SAH
47   49    1
SMALL
USER_CHARGES


@<TRIPOS>ATOM
      1 C2         -6.6940    6.3660   17.5220 C.ar      1 SAH         0.0000 
      2 C8         -2.4550    5.6770   18.2020 C.ar      1 SAH         0.0000 
      3 C5         -4.1920    5.7280   16.9550 C.ar      1 SAH         0.0000 
      4 C4         -4.5990    6.2900   18.1330 C.ar      1 SAH         0.0000 
      5 C6         -5.1660    5.6140   15.9680 C.ar      1 SAH         0.0000 
      6 C          -4.7190   12.6510   26.2500 C.2       1 SAH         0.0000 
      7 C3'        -2.7810    6.5900   22.6150 C.3       1 SAH         0.0000 
      8 C2'        -3.0230    5.6880   21.3550 C.3       1 SAH         0.0000 
      9 C4'        -2.5480    8.0170   21.8880 C.3       1 SAH         0.0000 
     10 C1'        -3.4830    6.7390   20.3130 C.3       1 SAH         0.0000 
     11 C5'        -1.2660    8.7480   22.1870 C.3       1 SAH         0.0000 
     12 CB         -2.9430   11.1320   25.1840 C.3       1 SAH         0.0000 
     13 CG         -2.4920   10.4960   23.8630 C.3       1 SAH         0.0000 
     14 CA         -4.2000   11.9820   24.9600 C.3       1 SAH         0.0000 
     15 N3         -5.8590    6.6230   18.5010 N.ar      1 SAH         0.0000 
     16 N1         -6.4250    5.9470   16.3060 N.ar      1 SAH         0.0000 
     17 N7         -2.8580    5.2660   17.0360 N.2       1 SAH         0.0000 
     18 N9         -3.4680    6.3410   18.9140 N.pl3     1 SAH         0.0000 
     19 N6         -4.8690    5.1060   14.7690 N.pl3     1 SAH         0.0000 
     20 N          -3.9390   12.9490   23.9010 N.4       1 SAH         0.0000 
     21 O          -5.6170   13.5130   26.0830 O.co2     1 SAH         0.0000 
     22 O4'        -2.5910    7.8390   20.4400 O.3       1 SAH         0.0000 
     23 OXT        -4.5570   12.0620   27.3540 O.co2     1 SAH         0.0000 
     24 O3'        -3.8780    6.6110   23.5890 O.3       1 SAH         0.0000 
     25 O2'        -3.9020    4.5270   21.4480 O.3       1 SAH         0.0000 
     26 SD         -1.1570    9.2870   23.8890 S.3       1 SAH         0.0000 
     27 H2         -7.7533    6.5214   17.7474 H         1 SAH         0.0000 
     28 H8         -1.4704    5.5518   18.6283 H         1 SAH         0.0000 
     29 H3'        -2.0188    6.2137   23.3131 H         1 SAH         0.0000 
     30 H2'        -2.1538    5.0605   21.1086 H         1 SAH         0.0000 
     31 H4'        -3.3396    8.7048   22.2201 H         1 SAH         0.0000 
     32 H1'        -4.5349    7.0076   20.4900 H         1 SAH         0.0000 
     33 H5'1       -0.4110    8.0848   21.9890 H         1 SAH         0.0000 
     34 H5'2       -1.1944    9.6396   21.5468 H         1 SAH         0.0000 
     35 HB1        -3.1687   10.3405   25.9138 H         1 SAH         0.0000 
     36 HB2        -2.1395   11.7733   25.5754 H         1 SAH         0.0000 
     37 HG1        -3.3384    9.9635   23.4047 H         1 SAH         0.0000 
     38 HG2        -2.1397   11.2821   23.1790 H         1 SAH         0.0000 
     39 HA         -5.0139   11.3416   24.5893 H         1 SAH         0.0000 
     40 HN61       -3.8288    4.8443   14.5248 H         1 SAH         0.0000 
     41 HN62       -5.6646    4.9493   14.0257 H         1 SAH         0.0000 
     42 HN1        -4.8369   13.5623   23.7351 H         1 SAH         0.0000 
     43 HN2        -3.6821   12.4165   22.9734 H         1 SAH         0.0000 
     44 HXT        -4.9210   12.5250   28.2830 H         1 SAH         0.0000 
     45 HO3'       -4.1338    5.6995   24.1491 H         1 SAH         0.0000 
     46 HO2'       -3.6711    3.7177   22.1563 H         1 SAH         0.0000 
     47 H47        -3.1010   13.5979   24.1954 H         1 SAH         0.0000 
@<TRIPOS>BOND
     1    1   15 ar   
     2    1   16 ar   
     3    1   27 1    
     4    2   17 ar   
     5    2   18 ar   
     6    2   28 1    
     7    3    4 ar   
     8    3    5 ar   
     9    3   17 ar   
    10    4   15 ar   
    11    4   18 ar   
    12    5   16 ar   
    13    5   19 1    
    14    6   14 1    
    15    6   21 2    
    16    6   23 1    
    17    7    8 1    
    18    7    9 1    
    19    7   24 1    
    20    7   29 1    
    21    8   10 1    
    22    8   25 1    
    23    8   30 1    
    24    9   11 1    
    25    9   22 1    
    26    9   31 1    
    27   10   18 1    
    28   10   22 1    
    29   10   32 1    
    30   11   26 1    
    31   11   33 1    
    32   11   34 1    
    33   12   13 1    
    34   12   14 1    
    35   12   35 1    
    36   12   36 1    
    37   13   26 1    
    38   13   37 1    
    39   13   38 1    
    40   14   20 1    
    41   14   39 1    
    42   19   40 1    
    43   19   41 1    
    44   20   42 1    
    45   20   43 1    
    46   20   47 1    
    47   23   44 1    
    48   24   45 1    
    49   25   46 1    
@<TRIPOS>SUBSTRUCTURE
     1 SAH         1 GROUP             0       ****    0 ROOT    
@<TRIPOS>MOLECULE
SAH
48   50    1
SMALL
USER_CHARGES


@<TRIPOS>ATOM
      1 C2         -6.6940    6.3660   17.5220 C.ar      1 SAH         0.0000 
      2 C8         -2.4550    5.6770   18.2020 C.ar      1 SAH         0.0000 
      3 C5         -4.1920    5.7280   16.9550 C.ar      1 SAH         0.0000 
      4 C4         -4.5990    6.2900   18.1330 C.ar      1 SAH         0.0000 
      5 C6         -5.1660    5.6140   15.9680 C.ar      1 SAH         0.0000 
      6 C          -4.7190   12.6510   26.2500 C.2       1 SAH         0.0000 
      7 C3'        -2.7810    6.5900   22.6150 C.3       1 SAH         0.0000 
      8 C2'        -3.0230    5.6880   21.3550 C.3       1 SAH         0.0000 
      9 C4'        -2.5480    8.0170   21.8880 C.3       1 SAH         0.0000 
     10 C1'        -3.4830    6.7390   20.3130 C.3       1 SAH         0.0000 
     11 C5'        -1.2660    8.7480   22.1870 C.3       1 SAH         0.0000 
     12 CB         -2.9430   11.1320   25.1840 C.3       1 SAH         0.0000 
     13 CG         -2.4920   10.4960   23.8630 C.3       1 SAH         0.0000 
     14 CA         -4.2000   11.9820   24.9600 C.3       1 SAH         0.0000 
     15 N3         -5.8590    6.6230   18.5010 N.ar      1 SAH         0.0000 
     16 N1         -6.4250    5.9470   16.3060 N.ar      1 SAH         0.0000 
     17 N7         -2.8580    5.2660   17.0360 N.pl3     1 SAH         0.0000 
     18 N9         -3.4680    6.3410   18.9140 N.pl3     1 SAH         0.0000 
     19 N6         -4.8690    5.1060   14.7690 N.pl3     1 SAH         0.0000 
     20 N          -3.9390   12.9490   23.9010 N.4       1 SAH         0.0000 
     21 O          -5.6170   13.5130   26.0830 O.co2     1 SAH         0.0000 
     22 O4'        -2.5910    7.8390   20.4400 O.3       1 SAH         0.0000 
     23 OXT        -4.5570   12.0620   27.3540 O.co2     1 SAH         0.0000 
     24 O3'        -3.8780    6.6110   23.5890 O.3       1 SAH         0.0000 
     25 O2'        -3.9020    4.5270   21.4480 O.3       1 SAH         0.0000 
     26 SD         -1.1570    9.2870   23.8890 S.3       1 SAH         0.0000 
     27 H2         -7.7533    6.5214   17.7474 H         1 SAH         0.0000 
     28 H8         -1.4704    5.5518   18.6283 H         1 SAH         0.0000 
     29 H3'        -2.0188    6.2137   23.3131 H         1 SAH         0.0000 
     30 H2'        -2.1538    5.0605   21.1086 H         1 SAH         0.0000 
     31 H4'        -3.3396    8.7048   22.2201 H         1 SAH         0.0000 
     32 H1'        -4.5349    7.0076   20.4900 H         1 SAH         0.0000 
     33 H5'1       -0.4110    8.0848   21.9890 H         1 SAH         0.0000 
     34 H5'2       -1.1944    9.6396   21.5468 H         1 SAH         0.0000 
     35 HB1        -3.1687   10.3405   25.9138 H         1 SAH         0.0000 
     36 HB2        -2.1395   11.7733   25.5754 H         1 SAH         0.0000 
     37 HG1        -3.3384    9.9635   23.4047 H         1 SAH         0.0000 
     38 HG2        -2.1397   11.2821   23.1790 H         1 SAH         0.0000 
     39 HA         -5.0139   11.3416   24.5893 H         1 SAH         0.0000 
     40 HN61       -3.8288    4.8443   14.5248 H         1 SAH         0.0000 
     41 HN62       -5.6646    4.9493   14.0257 H         1 SAH         0.0000 
     42 HN1        -4.8369   13.5623   23.7351 H         1 SAH         0.0000 
     43 HN2        -3.6821   12.4165   22.9734 H         1 SAH         0.0000 
     44 HXT        -4.9210   12.5250   28.2830 H         1 SAH         0.0000 
     45 HO3'       -4.1338    5.6995   24.1491 H         1 SAH         0.0000 
     46 HO2'       -3.6711    3.7177   22.1563 H         1 SAH         0.0000 
     47 H47        -3.1010   13.5979   24.1954 H         1 SAH         0.0000 
     48 H48        -2.1757    4.6969   16.3874 H         1 SAH         0.0000 
@<TRIPOS>BOND
     1    1   15 ar   
     2    1   16 ar   
     3    1   27 1    
     4    2   17 ar   
     5    2   18 ar   
     6    2   28 1    
     7    3    4 ar   
     8    3    5 ar   
     9    3   17 ar   
    10    4   15 ar   
    11    4   18 ar   
    12    5   16 ar   
    13    5   19 1    
    14    6   14 1    
    15    6   21 2    
    16    6   23 1    
    17    7    8 1    
    18    7    9 1    
    19    7   24 1    
    20    7   29 1    
    21    8   10 1    
    22    8   25 1    
    23    8   30 1    
    24    9   11 1    
    25    9   22 1    
    26    9   31 1    
    27   10   18 1    
    28   10   22 1    
    29   10   32 1    
    30   11   26 1    
    31   11   33 1    
    32   11   34 1    
    33   12   13 1    
    34   12   14 1    
    35   12   35 1    
    36   12   36 1    
    37   13   26 1    
    38   13   37 1    
    39   13   38 1    
    40   14   20 1    
    41   14   39 1    
    42   17   48 1    
    43   19   40 1    
    44   19   41 1    
    45   20   42 1    
    46   20   43 1    
    47   20   47 1    
    48   23   44 1    
    49   24   45 1    
    50   25   46 1    
@<TRIPOS>SUBSTRUCTURE
     1 SAH         1 GROUP             0       ****    0 ROOT    
@<TRIPOS>MOLECULE
SAH
45   47    1
SMALL
USER_CHARGES


@<TRIPOS>ATOM
      1 C2         -6.6940    6.3660   17.5220 C.ar      1 SAH         0.0000 
      2 C8         -2.4550    5.6770   18.2020 C.ar      1 SAH         0.0000 
      3 C5         -4.1920    5.7280   16.9550 C.ar      1 SAH         0.0000 
      4 C4         -4.5990    6.2900   18.1330 C.ar      1 SAH         0.0000 
      5 C6         -5.1660    5.6140   15.9680 C.ar      1 SAH         0.0000 
      6 C          -4.7190   12.6510   26.2500 C.2       1 SAH         0.0000 
      7 C3'        -2.7810    6.5900   22.6150 C.3       1 SAH         0.0000 
      8 C2'        -3.0230    5.6880   21.3550 C.3       1 SAH         0.0000 
      9 C4'        -2.5480    8.0170   21.8880 C.3       1 SAH         0.0000 
     10 C1'        -3.4830    6.7390   20.3130 C.3       1 SAH         0.0000 
     11 C5'        -1.2660    8.7480   22.1870 C.3       1 SAH         0.0000 
     12 CB         -2.9430   11.1320   25.1840 C.3       1 SAH         0.0000 
     13 CG         -2.4920   10.4960   23.8630 C.3       1 SAH         0.0000 
     14 CA         -4.2000   11.9820   24.9600 C.3       1 SAH         0.0000 
     15 N3         -5.8590    6.6230   18.5010 N.ar      1 SAH         0.0000 
     16 N1         -6.4250    5.9470   16.3060 N.ar      1 SAH         0.0000 
     17 N7         -2.8580    5.2660   17.0360 N.2       1 SAH         0.0000 
     18 N9         -3.4680    6.3410   18.9140 N.pl3     1 SAH         0.0000 
     19 N6         -4.8690    5.1060   14.7690 N.pl3     1 SAH         0.0000 
     20 N          -3.9390   12.9490   23.9010 N.3       1 SAH         0.0000 
     21 O          -5.6170   13.5130   26.0830 O.2       1 SAH         0.0000 
     22 O4'        -2.5910    7.8390   20.4400 O.3       1 SAH         0.0000 
     23 OXT        -4.5570   12.0620   27.3540 O         1 SAH         0.0000 
     24 O3'        -3.8780    6.6110   23.5890 O.3       1 SAH         0.0000 
     25 O2'        -3.9020    4.5270   21.4480 O.3       1 SAH         0.0000 
     26 SD         -1.1570    9.2870   23.8890 S.3       1 SAH         0.0000 
     27 H2         -7.7533    6.5214   17.7474 H         1 SAH         0.0000 
     28 H8         -1.4704    5.5518   18.6283 H         1 SAH         0.0000 
     29 H3'        -2.0188    6.2137   23.3131 H         1 SAH         0.0000 
     30 H2'        -2.1538    5.0605   21.1086 H         1 SAH         0.0000 
     31 H4'        -3.3396    8.7048   22.2201 H         1 SAH         0.0000 
     32 H1'        -4.5349    7.0076   20.4900 H         1 SAH         0.0000 
     33 H5'1       -0.4110    8.0848   21.9890 H         1 SAH         0.0000 
     34 H5'2       -1.1944    9.6396   21.5468 H         1 SAH         0.0000 
     35 HB1        -3.1687   10.3405   25.9138 H         1 SAH         0.0000 
     36 HB2        -2.1395   11.7733   25.5754 H         1 SAH         0.0000 
     37 HG1        -3.3384    9.9635   23.4047 H         1 SAH         0.0000 
     38 HG2        -2.1397   11.2821   23.1790 H         1 SAH         0.0000 
     39 HA         -5.0139   11.3416   24.5893 H         1 SAH         0.0000 
     40 HN61       -3.8288    4.8443   14.5248 H         1 SAH         0.0000 
     41 HN62       -5.6646    4.9493   14.0257 H         1 SAH         0.0000 
     42 HN1        -3.1283   13.6241   24.2126 H         1 SAH         0.0000 
     43 HN2        -3.6421   12.4179   22.9846 H         1 SAH         0.0000 
     44 HO3'       -4.1338    5.6995   24.1491 H         1 SAH         0.0000 
     45 HO2'       -3.6711    3.7177   22.1563 H         1 SAH         0.0000 
@<TRIPOS>BOND
     1    1   15 ar   
     2    1   16 ar   
     3    1   27 1    
     4    2   17 ar   
     5    2   18 ar   
     6    2   28 1    
     7    3    4 ar   
     8    3    5 ar   
     9    3   17 ar   
    10    4   15 ar   
    11    4   18 ar   
    12    5   16 ar   
    13    5   19 1    
    14    6   14 1    
    15    6   21 2    
    16    6   23 1    
    17    7    8 1    
    18    7    9 1    
    19    7   24 1    
    20    7   29 1    
    21    8   10 1    
    22    8   25 1    
    23    8   30 1    
    24    9   11 1    
    25    9   22 1    
    26    9   31 1    
    27   10   18 1    
    28   10   22 1    
    29   10   32 1    
    30   11   26 1    
    31   11   33 1    
    32   11   34 1    
    33   12   13 1    
    34   12   14 1    
    35   12   35 1    
    36   12   36 1    
    37   13   26 1    
    38   13   37 1    
    39   13   38 1    
    40   14   20 1    
    41   14   39 1    
    42   19   40 1    
    43   19   41 1    
    44   20   42 1    
    45   20   43 1    
    46   24   44 1    
    47   25   45 1    
@<TRIPOS>SUBSTRUCTURE
     1 SAH         1 GROUP             0       ****    0 ROOT    
@<TRIPOS>MOLECULE
SAH
46   48    1
SMALL
USER_CHARGES


@<TRIPOS>ATOM
      1 C2         -6.6940    6.3660   17.5220 C.ar      1 SAH         0.0000 
      2 C8         -2.4550    5.6770   18.2020 C.ar      1 SAH         0.0000 
      3 C5         -4.1920    5.7280   16.9550 C.ar      1 SAH         0.0000 
      4 C4         -4.5990    6.2900   18.1330 C.ar      1 SAH         0.0000 
      5 C6         -5.1660    5.6140   15.9680 C.ar      1 SAH         0.0000 
      6 C          -4.7190   12.6510   26.2500 C.2       1 SAH         0.0000 
      7 C3'        -2.7810    6.5900   22.6150 C.3       1 SAH         0.0000 
      8 C2'        -3.0230    5.6880   21.3550 C.3       1 SAH         0.0000 
      9 C4'        -2.5480    8.0170   21.8880 C.3       1 SAH         0.0000 
     10 C1'        -3.4830    6.7390   20.3130 C.3       1 SAH         0.0000 
     11 C5'        -1.2660    8.7480   22.1870 C.3       1 SAH         0.0000 
     12 CB         -2.9430   11.1320   25.1840 C.3       1 SAH         0.0000 
     13 CG         -2.4920   10.4960   23.8630 C.3       1 SAH         0.0000 
     14 CA         -4.2000   11.9820   24.9600 C.3       1 SAH         0.0000 
     15 N3         -5.8590    6.6230   18.5010 N.ar      1 SAH         0.0000 
     16 N1         -6.4250    5.9470   16.3060 N.pl3     1 SAH         0.0000 
     17 N7         -2.8580    5.2660   17.0360 N.2       1 SAH         0.0000 
     18 N9         -3.4680    6.3410   18.9140 N.pl3     1 SAH         0.0000 
     19 N6         -4.8690    5.1060   14.7690 N.pl3     1 SAH         0.0000 
     20 N          -3.9390   12.9490   23.9010 N.3       1 SAH         0.0000 
     21 O          -5.6170   13.5130   26.0830 O.2       1 SAH         0.0000 
     22 O4'        -2.5910    7.8390   20.4400 O.3       1 SAH         0.0000 
     23 OXT        -4.5570   12.0620   27.3540 O         1 SAH         0.0000 
     24 O3'        -3.8780    6.6110   23.5890 O.3       1 SAH         0.0000 
     25 O2'        -3.9020    4.5270   21.4480 O.3       1 SAH         0.0000 
     26 SD         -1.1570    9.2870   23.8890 S.3       1 SAH         0.0000 
     27 H2         -7.7533    6.5214   17.7474 H         1 SAH         0.0000 
     28 H8         -1.4704    5.5518   18.6283 H         1 SAH         0.0000 
     29 H3'        -2.0188    6.2137   23.3131 H         1 SAH         0.0000 
     30 H2'        -2.1538    5.0605   21.1086 H         1 SAH         0.0000 
     31 H4'        -3.3396    8.7048   22.2201 H         1 SAH         0.0000 
     32 H1'        -4.5349    7.0076   20.4900 H         1 SAH         0.0000 
     33 H5'1       -0.4110    8.0848   21.9890 H         1 SAH         0.0000 
     34 H5'2       -1.1944    9.6396   21.5468 H         1 SAH         0.0000 
     35 HB1        -3.1687   10.3405   25.9138 H         1 SAH         0.0000 
     36 HB2        -2.1395   11.7733   25.5754 H         1 SAH         0.0000 
     37 HG1        -3.3384    9.9635   23.4047 H         1 SAH         0.0000 
     38 HG2        -2.1397   11.2821   23.1790 H         1 SAH         0.0000 
     39 HA         -5.0139   11.3416   24.5893 H         1 SAH         0.0000 
     40 HN61       -3.8288    4.8443   14.5248 H         1 SAH         0.0000 
     41 HN62       -5.6646    4.9493   14.0257 H         1 SAH         0.0000 
     42 HN1        -3.1283   13.6241   24.2126 H         1 SAH         0.0000 
     43 HN2        -3.6421   12.4179   22.9846 H         1 SAH         0.0000 
     44 HO3'       -4.1338    5.6995   24.1491 H         1 SAH         0.0000 
     45 HO2'       -3.6711    3.7177   22.1563 H         1 SAH         0.0000 
     46 H46        -7.2303    5.8676   15.5609 H         1 SAH         0.0000 
@<TRIPOS>BOND
     1    1   15 ar   
     2    1   16 ar   
     3    1   27 1    
     4    2   17 ar   
     5    2   18 ar   
     6    2   28 1    
     7    3    4 ar   
     8    3    5 ar   
     9    3   17 ar   
    10    4   15 ar   
    11    4   18 ar   
    12    5   16 ar   
    13    5   19 1    
    14    6   14 1    
    15    6   21 2    
    16    6   23 1    
    17    7    8 1    
    18    7    9 1    
    19    7   24 1    
    20    7   29 1    
    21    8   10 1    
    22    8   25 1    
    23    8   30 1    
    24    9   11 1    
    25    9   22 1    
    26    9   31 1    
    27   10   18 1    
    28   10   22 1    
    29   10   32 1    
    30   11   26 1    
    31   11   33 1    
    32   11   34 1    
    33   12   13 1    
    34   12   14 1    
    35   12   35 1    
    36   12   36 1    
    37   13   26 1    
    38   13   37 1    
    39   13   38 1    
    40   14   20 1    
    41   14   39 1    
    42   16   46 1    
    43   19   40 1    
    44   19   41 1    
    45   20   42 1    
    46   20   43 1    
    47   24   44 1    
    48   25   45 1    
@<TRIPOS>SUBSTRUCTURE
     1 SAH         1 GROUP             0       ****    0 ROOT    
@<TRIPOS>MOLECULE
SAH
48   50    1
SMALL
USER_CHARGES


@<TRIPOS>ATOM
      1 C2         -6.6940    6.3660   17.5220 C.ar      1 SAH         0.0000 
      2 C8         -2.4550    5.6770   18.2020 C.ar      1 SAH         0.0000 
      3 C5         -4.1920    5.7280   16.9550 C.ar      1 SAH         0.0000 
      4 C4         -4.5990    6.2900   18.1330 C.ar      1 SAH         0.0000 
      5 C6         -5.1660    5.6140   15.9680 C.ar      1 SAH         0.0000 
      6 C          -4.7190   12.6510   26.2500 C.2       1 SAH         0.0000 
      7 C3'        -2.7810    6.5900   22.6150 C.3       1 SAH         0.0000 
      8 C2'        -3.0230    5.6880   21.3550 C.3       1 SAH         0.0000 
      9 C4'        -2.5480    8.0170   21.8880 C.3       1 SAH         0.0000 
     10 C1'        -3.4830    6.7390   20.3130 C.3       1 SAH         0.0000 
     11 C5'        -1.2660    8.7480   22.1870 C.3       1 SAH         0.0000 
     12 CB         -2.9430   11.1320   25.1840 C.3       1 SAH         0.0000 
     13 CG         -2.4920   10.4960   23.8630 C.3       1 SAH         0.0000 
     14 CA         -4.2000   11.9820   24.9600 C.3       1 SAH         0.0000 
     15 N3         -5.8590    6.6230   18.5010 N.ar      1 SAH         0.0000 
     16 N1         -6.4250    5.9470   16.3060 N.pl3     1 SAH         0.0000 
     17 N7         -2.8580    5.2660   17.0360 N.pl3     1 SAH         0.0000 
     18 N9         -3.4680    6.3410   18.9140 N.pl3     1 SAH         0.0000 
     19 N6         -4.8690    5.1060   14.7690 N.pl3     1 SAH         0.0000 
     20 N          -3.9390   12.9490   23.9010 N.4       1 SAH         0.0000 
     21 O          -5.6170   13.5130   26.0830 O.2       1 SAH         0.0000 
     22 O4'        -2.5910    7.8390   20.4400 O.3       1 SAH         0.0000 
     23 OXT        -4.5570   12.0620   27.3540 O         1 SAH         0.0000 
     24 O3'        -3.8780    6.6110   23.5890 O.3       1 SAH         0.0000 
     25 O2'        -3.9020    4.5270   21.4480 O.3       1 SAH         0.0000 
     26 SD         -1.1570    9.2870   23.8890 S.3       1 SAH         0.0000 
     27 H2         -7.7533    6.5214   17.7474 H         1 SAH         0.0000 
     28 H8         -1.4704    5.5518   18.6283 H         1 SAH         0.0000 
     29 H3'        -2.0188    6.2137   23.3131 H         1 SAH         0.0000 
     30 H2'        -2.1538    5.0605   21.1086 H         1 SAH         0.0000 
     31 H4'        -3.3396    8.7048   22.2201 H         1 SAH         0.0000 
     32 H1'        -4.5349    7.0076   20.4900 H         1 SAH         0.0000 
     33 H5'1       -0.4110    8.0848   21.9890 H         1 SAH         0.0000 
     34 H5'2       -1.1944    9.6396   21.5468 H         1 SAH         0.0000 
     35 HB1        -3.1687   10.3405   25.9138 H         1 SAH         0.0000 
     36 HB2        -2.1395   11.7733   25.5754 H         1 SAH         0.0000 
     37 HG1        -3.3384    9.9635   23.4047 H         1 SAH         0.0000 
     38 HG2        -2.1397   11.2821   23.1790 H         1 SAH         0.0000 
     39 HA         -5.0139   11.3416   24.5893 H         1 SAH         0.0000 
     40 HN61       -3.8288    4.8443   14.5248 H         1 SAH         0.0000 
     41 HN62       -5.6646    4.9493   14.0257 H         1 SAH         0.0000 
     42 HN1        -4.8369   13.5623   23.7351 H         1 SAH         0.0000 
     43 HN2        -3.6821   12.4165   22.9734 H         1 SAH         0.0000 
     44 HO3'       -4.1338    5.6995   24.1491 H         1 SAH         0.0000 
     45 HO2'       -3.6711    3.7177   22.1563 H         1 SAH         0.0000 
     46 H46        -3.1010   13.5979   24.1954 H         1 SAH         0.0000 
     47 H47        -7.2303    5.8676   15.5609 H         1 SAH         0.0000 
     48 H48        -2.1757    4.6969   16.3874 H         1 SAH         0.0000 
@<TRIPOS>BOND
     1    1   15 ar   
     2    1   16 ar   
     3    1   27 1    
     4    2   17 ar   
     5    2   18 ar   
     6    2   28 1    
     7    3    4 ar   
     8    3    5 ar   
     9    3   17 ar   
    10    4   15 ar   
    11    4   18 ar   
    12    5   16 ar   
    13    5   19 1    
    14    6   14 1    
    15    6   21 2    
    16    6   23 1    
    17    7    8 1    
    18    7    9 1    
    19    7   24 1    
    20    7   29 1    
    21    8   10 1    
    22    8   25 1    
    23    8   30 1    
    24    9   11 1    
    25    9   22 1    
    26    9   31 1    
    27   10   18 1    
    28   10   22 1    
    29   10   32 1    
    30   11   26 1    
    31   11   33 1    
    32   11   34 1    
    33   12   13 1    
    34   12   14 1    
    35   12   35 1    
    36   12   36 1    
    37   13   26 1    
    38   13   37 1    
    39   13   38 1    
    40   14   20 1    
    41   14   39 1    
    42   16   47 1    
    43   17   48 1    
    44   19   40 1    
    45   19   41 1    
    46   20   42 1    
    47   20   43 1    
    48   20   46 1    
    49   24   44 1    
    50   25   45 1    
@<TRIPOS>SUBSTRUCTURE
     1 SAH         1 GROUP             0       ****    0 ROOT    
@<TRIPOS>MOLECULE
SAH
46   48    1
SMALL
USER_CHARGES


@<TRIPOS>ATOM
      1 C2         -6.6940    6.3660   17.5220 C.ar      1 SAH         0.0000 
      2 C8         -2.4550    5.6770   18.2020 C.ar      1 SAH         0.0000 
      3 C5         -4.1920    5.7280   16.9550 C.ar      1 SAH         0.0000 
      4 C4         -4.5990    6.2900   18.1330 C.ar      1 SAH         0.0000 
      5 C6         -5.1660    5.6140   15.9680 C.ar      1 SAH         0.0000 
      6 C          -4.7190   12.6510   26.2500 C.2       1 SAH         0.0000 
      7 C3'        -2.7810    6.5900   22.6150 C.3       1 SAH         0.0000 
      8 C2'        -3.0230    5.6880   21.3550 C.3       1 SAH         0.0000 
      9 C4'        -2.5480    8.0170   21.8880 C.3       1 SAH         0.0000 
     10 C1'        -3.4830    6.7390   20.3130 C.3       1 SAH         0.0000 
     11 C5'        -1.2660    8.7480   22.1870 C.3       1 SAH         0.0000 
     12 CB         -2.9430   11.1320   25.1840 C.3       1 SAH         0.0000 
     13 CG         -2.4920   10.4960   23.8630 C.3       1 SAH         0.0000 
     14 CA         -4.2000   11.9820   24.9600 C.3       1 SAH         0.0000 
     15 N3         -5.8590    6.6230   18.5010 N.ar      1 SAH         0.0000 
     16 N1         -6.4250    5.9470   16.3060 N.ar      1 SAH         0.0000 
     17 N7         -2.8580    5.2660   17.0360 N.2       1 SAH         0.0000 
     18 N9         -3.4680    6.3410   18.9140 N.pl3     1 SAH         0.0000 
     19 N6         -4.8690    5.1060   14.7690 N.pl3     1 SAH         0.0000 
     20 N          -3.9390   12.9490   23.9010 N.3       1 SAH         0.0000 
     21 O          -5.6170   13.5130   26.0830 O.co2     1 SAH         0.0000 
     22 O4'        -2.5910    7.8390   20.4400 O.3       1 SAH         0.0000 
     23 OXT        -4.5570   12.0620   27.3540 O.co2     1 SAH         0.0000 
     24 O3'        -3.8780    6.6110   23.5890 O.3       1 SAH         0.0000 
     25 O2'        -3.9020    4.5270   21.4480 O.3       1 SAH         0.0000 
     26 SD         -1.1570    9.2870   23.8890 S.3       1 SAH         0.0000 
     27 H2         -7.7533    6.5214   17.7474 H         1 SAH         0.0000 
     28 H8         -1.4704    5.5518   18.6283 H         1 SAH         0.0000 
     29 H3'        -2.0188    6.2137   23.3131 H         1 SAH         0.0000 
     30 H2'        -2.1538    5.0605   21.1086 H         1 SAH         0.0000 
     31 H4'        -3.3396    8.7048   22.2201 H         1 SAH         0.0000 
     32 H1'        -4.5349    7.0076   20.4900 H         1 SAH         0.0000 
     33 H5'1       -0.4110    8.0848   21.9890 H         1 SAH         0.0000 
     34 H5'2       -1.1944    9.6396   21.5468 H         1 SAH         0.0000 
     35 HB1        -3.1687   10.3405   25.9138 H         1 SAH         0.0000 
     36 HB2        -2.1395   11.7733   25.5754 H         1 SAH         0.0000 
     37 HG1        -3.3384    9.9635   23.4047 H         1 SAH         0.0000 
     38 HG2        -2.1397   11.2821   23.1790 H         1 SAH         0.0000 
     39 HA         -5.0139   11.3416   24.5893 H         1 SAH         0.0000 
     40 HN61       -3.8288    4.8443   14.5248 H         1 SAH         0.0000 
     41 HN62       -5.6646    4.9493   14.0257 H         1 SAH         0.0000 
     42 HN1        -3.1283   13.6241   24.2126 H         1 SAH         0.0000 
     43 HN2        -3.6421   12.4179   22.9846 H         1 SAH         0.0000 
     44 HXT        -4.9210   12.5250   28.2830 H         1 SAH         0.0000 
     45 HO3'       -4.1338    5.6995   24.1491 H         1 SAH         0.0000 
     46 HO2'       -3.6711    3.7177   22.1563 H         1 SAH         0.0000 
@<TRIPOS>BOND
     1    1   15 ar   
     2    1   16 ar   
     3    1   27 1    
     4    2   17 ar   
     5    2   18 ar   
     6    2   28 1    
     7    3    4 ar   
     8    3    5 ar   
     9    3   17 ar   
    10    4   15 ar   
    11    4   18 ar   
    12    5   16 ar   
    13    5   19 1    
    14    6   14 1    
    15    6   21 2    
    16    6   23 1    
    17    7    8 1    
    18    7    9 1    
    19    7   24 1    
    20    7   29 1    
    21    8   10 1    
    22    8   25 1    
    23    8   30 1    
    24    9   11 1    
    25    9   22 1    
    26    9   31 1    
    27   10   18 1    
    28   10   22 1    
    29   10   32 1    
    30   11   26 1    
    31   11   33 1    
    32   11   34 1    
    33   12   13 1    
    34   12   14 1    
    35   12   35 1    
    36   12   36 1    
    37   13   26 1    
    38   13   37 1    
    39   13   38 1    
    40   14   20 1    
    41   14   39 1    
    42   19   40 1    
    43   19   41 1    
    44   20   42 1    
    45   20   43 1    
    46   23   44 1    
    47   24   45 1    
    48   25   46 1    
@<TRIPOS>SUBSTRUCTURE
     1 SAH         1 GROUP             0       ****    0 ROOT    
@<TRIPOS>MOLECULE
SAH
47   49    1
SMALL
USER_CHARGES


@<TRIPOS>ATOM
      1 C2         -6.6940    6.3660   17.5220 C.ar      1 SAH         0.0000 
      2 C8         -2.4550    5.6770   18.2020 C.ar      1 SAH         0.0000 
      3 C5         -4.1920    5.7280   16.9550 C.ar      1 SAH         0.0000 
      4 C4         -4.5990    6.2900   18.1330 C.ar      1 SAH         0.0000 
      5 C6         -5.1660    5.6140   15.9680 C.ar      1 SAH         0.0000 
      6 C          -4.7190   12.6510   26.2500 C.2       1 SAH         0.0000 
      7 C3'        -2.7810    6.5900   22.6150 C.3       1 SAH         0.0000 
      8 C2'        -3.0230    5.6880   21.3550 C.3       1 SAH         0.0000 
      9 C4'        -2.5480    8.0170   21.8880 C.3       1 SAH         0.0000 
     10 C1'        -3.4830    6.7390   20.3130 C.3       1 SAH         0.0000 
     11 C5'        -1.2660    8.7480   22.1870 C.3       1 SAH         0.0000 
     12 CB         -2.9430   11.1320   25.1840 C.3       1 SAH         0.0000 
     13 CG         -2.4920   10.4960   23.8630 C.3       1 SAH         0.0000 
     14 CA         -4.2000   11.9820   24.9600 C.3       1 SAH         0.0000 
     15 N3         -5.8590    6.6230   18.5010 N.ar      1 SAH         0.0000 
     16 N1         -6.4250    5.9470   16.3060 N.pl3     1 SAH         0.0000 
     17 N7         -2.8580    5.2660   17.0360 N.2       1 SAH         0.0000 
     18 N9         -3.4680    6.3410   18.9140 N.pl3     1 SAH         0.0000 
     19 N6         -4.8690    5.1060   14.7690 N.pl3     1 SAH         0.0000 
     20 N          -3.9390   12.9490   23.9010 N.3       1 SAH         0.0000 
     21 O          -5.6170   13.5130   26.0830 O.co2     1 SAH         0.0000 
     22 O4'        -2.5910    7.8390   20.4400 O.3       1 SAH         0.0000 
     23 OXT        -4.5570   12.0620   27.3540 O.co2     1 SAH         0.0000 
     24 O3'        -3.8780    6.6110   23.5890 O.3       1 SAH         0.0000 
     25 O2'        -3.9020    4.5270   21.4480 O.3       1 SAH         0.0000 
     26 SD         -1.1570    9.2870   23.8890 S.3       1 SAH         0.0000 
     27 H2         -7.7533    6.5214   17.7474 H         1 SAH         0.0000 
     28 H8         -1.4704    5.5518   18.6283 H         1 SAH         0.0000 
     29 H3'        -2.0188    6.2137   23.3131 H         1 SAH         0.0000 
     30 H2'        -2.1538    5.0605   21.1086 H         1 SAH         0.0000 
     31 H4'        -3.3396    8.7048   22.2201 H         1 SAH         0.0000 
     32 H1'        -4.5349    7.0076   20.4900 H         1 SAH         0.0000 
     33 H5'1       -0.4110    8.0848   21.9890 H         1 SAH         0.0000 
     34 H5'2       -1.1944    9.6396   21.5468 H         1 SAH         0.0000 
     35 HB1        -3.1687   10.3405   25.9138 H         1 SAH         0.0000 
     36 HB2        -2.1395   11.7733   25.5754 H         1 SAH         0.0000 
     37 HG1        -3.3384    9.9635   23.4047 H         1 SAH         0.0000 
     38 HG2        -2.1397   11.2821   23.1790 H         1 SAH         0.0000 
     39 HA         -5.0139   11.3416   24.5893 H         1 SAH         0.0000 
     40 HN61       -3.8288    4.8443   14.5248 H         1 SAH         0.0000 
     41 HN62       -5.6646    4.9493   14.0257 H         1 SAH         0.0000 
     42 HN1        -3.1283   13.6241   24.2126 H         1 SAH         0.0000 
     43 HN2        -3.6421   12.4179   22.9846 H         1 SAH         0.0000 
     44 HXT        -4.9210   12.5250   28.2830 H         1 SAH         0.0000 
     45 HO3'       -4.1338    5.6995   24.1491 H         1 SAH         0.0000 
     46 HO2'       -3.6711    3.7177   22.1563 H         1 SAH         0.0000 
     47 H47        -7.2303    5.8676   15.5609 H         1 SAH         0.0000 
@<TRIPOS>BOND
     1    1   15 ar   
     2    1   16 ar   
     3    1   27 1    
     4    2   17 ar   
     5    2   18 ar   
     6    2   28 1    
     7    3    4 ar   
     8    3    5 ar   
     9    3   17 ar   
    10    4   15 ar   
    11    4   18 ar   
    12    5   16 ar   
    13    5   19 1    
    14    6   14 1    
    15    6   21 2    
    16    6   23 1    
    17    7    8 1    
    18    7    9 1    
    19    7   24 1    
    20    7   29 1    
    21    8   10 1    
    22    8   25 1    
    23    8   30 1    
    24    9   11 1    
    25    9   22 1    
    26    9   31 1    
    27   10   18 1    
    28   10   22 1    
    29   10   32 1    
    30   11   26 1    
    31   11   33 1    
    32   11   34 1    
    33   12   13 1    
    34   12   14 1    
    35   12   35 1    
    36   12   36 1    
    37   13   26 1    
    38   13   37 1    
    39   13   38 1    
    40   14   20 1    
    41   14   39 1    
    42   16   47 1    
    43   19   40 1    
    44   19   41 1    
    45   20   42 1    
    46   20   43 1    
    47   23   44 1    
    48   24   45 1    
    49   25   46 1    
@<TRIPOS>SUBSTRUCTURE
     1 SAH         1 GROUP             0       ****    0 ROOT    
