@<TRIPOS>MOLECULE
SAH
46   48    1
SMALL
USER_CHARGES


@<TRIPOS>ATOM
      1 N          -3.9390   12.9490   23.9010 N.4       1 SAH         0.0000 
      2 CA         -4.2000   11.9820   24.9600 C.3       1 SAH         0.0000 
      3 CB         -2.9430   11.1320   25.1840 C.3       1 SAH         0.0000 
      4 CG         -2.4920   10.4960   23.8630 C.3       1 SAH         0.0000 
      5 SD         -1.1570    9.2870   23.8890 S.3       1 SAH         0.0000 
      6 C          -4.7190   12.6510   26.2500 C.2       1 SAH         0.0000 
      7 O          -5.6170   13.5130   26.0830 O.2       1 SAH         0.0000 
      8 OXT        -4.5570   12.0620   27.3540 O         1 SAH         0.0000 
      9 C5'        -1.2660    8.7480   22.1870 C.3       1 SAH         0.0000 
     10 C4'        -2.5480    8.0170   21.8880 C.3       1 SAH         0.0000 
     11 O4'        -2.5910    7.8390   20.4400 O.3       1 SAH         0.0000 
     12 C3'        -2.7810    6.5900   22.6150 C.3       1 SAH         0.0000 
     13 O3'        -3.8780    6.6110   23.5890 O.3       1 SAH         0.0000 
     14 C2'        -3.0230    5.6880   21.3550 C.3       1 SAH         0.0000 
     15 O2'        -3.9020    4.5270   21.4480 O.3       1 SAH         0.0000 
     16 C1'        -3.4830    6.7390   20.3130 C.3       1 SAH         0.0000 
     17 N9         -3.4680    6.3410   18.9140 N.pl3     1 SAH         0.0000 
     18 C8         -2.4550    5.6770   18.2020 C.ar      1 SAH         0.0000 
     19 N7         -2.8580    5.2660   17.0360 N.2       1 SAH         0.0000 
     20 C5         -4.1920    5.7280   16.9550 C.ar      1 SAH         0.0000 
     21 C6         -5.1660    5.6140   15.9680 C.ar      1 SAH         0.0000 
     22 N6         -4.8690    5.1060   14.7690 N.pl3     1 SAH         0.0000 
     23 N1         -6.4250    5.9470   16.3060 N.ar      1 SAH         0.0000 
     24 C2         -6.6940    6.3660   17.5220 C.ar      1 SAH         0.0000 
     25 N3         -5.8590    6.6230   18.5010 N.ar      1 SAH         0.0000 
     26 C4         -4.5990    6.2900   18.1330 C.ar      1 SAH         0.0000 
     27 HN1        -3.5725   12.4235   23.0068 H         1 SAH         0.0000 
     28 HN2        -3.1794   13.6685   24.2406 H         1 SAH         0.0000 
     29 HA         -5.0139   11.3416   24.5893 H         1 SAH         0.0000 
     30 HB1        -2.1342   11.7687   25.5719 H         1 SAH         0.0000 
     31 HB2        -3.1633   10.3359   25.9104 H         1 SAH         0.0000 
     32 HG1        -3.3384    9.9635   23.4047 H         1 SAH         0.0000 
     33 HG2        -2.1397   11.2821   23.1790 H         1 SAH         0.0000 
     34 H5'1       -1.2145    9.6223   21.5215 H         1 SAH         0.0000 
     35 H5'2       -0.4311    8.0675   21.9637 H         1 SAH         0.0000 
     36 H4'        -3.3396    8.7048   22.2201 H         1 SAH         0.0000 
     37 H3'        -2.0188    6.2137   23.3131 H         1 SAH         0.0000 
     38 HO3'       -3.7912    7.2181   24.5022 H         1 SAH         0.0000 
     39 H2'        -2.1538    5.0605   21.1086 H         1 SAH         0.0000 
     40 HO2'       -3.6711    3.7177   22.1563 H         1 SAH         0.0000 
     41 H1'        -4.5349    7.0076   20.4900 H         1 SAH         0.0000 
     42 H8         -1.4190    5.4920   18.5340 H         1 SAH         0.0000 
     43 HN61       -3.8288    4.8443   14.5248 H         1 SAH         0.0000 
     44 HN62       -5.6646    4.9493   14.0257 H         1 SAH         0.0000 
     45 H2         -7.7610    6.5220   17.7510 H         1 SAH         0.0000 
     46 H46        -4.8681   13.4847   23.6565 H         1 SAH         0.0000 
@<TRIPOS>BOND
     1    1    2 1    
     2    1   27 1    
     3    1   28 1    
     4    1   46 1    
     5    2    3 1    
     6    2    6 1    
     7    2   29 1    
     8    3    4 1    
     9    3   30 1    
    10    3   31 1    
    11    4    5 1    
    12    4   32 1    
    13    4   33 1    
    14    5    9 1    
    15    6    7 2    
    16    6    8 1    
    17    9   10 1    
    18    9   34 1    
    19    9   35 1    
    20   10   11 1    
    21   10   12 1    
    22   10   36 1    
    23   11   16 1    
    24   12   13 1    
    25   12   14 1    
    26   12   37 1    
    27   13   38 1    
    28   14   15 1    
    29   14   16 1    
    30   14   39 1    
    31   15   40 1    
    32   16   17 1    
    33   16   41 1    
    34   17   18 ar   
    35   17   26 ar   
    36   18   19 ar   
    37   18   42 1    
    38   19   20 ar   
    39   20   21 ar   
    40   20   26 ar   
    41   21   22 1    
    42   21   23 ar   
    43   22   43 1    
    44   22   44 1    
    45   23   24 ar   
    46   24   25 ar   
    47   24   45 1    
    48   25   26 ar   
@<TRIPOS>SUBSTRUCTURE
     1 SAH         1 GROUP             0       ****    0 ROOT    
@<TRIPOS>MOLECULE
SAH
47   49    1
SMALL
USER_CHARGES


@<TRIPOS>ATOM
      1 N          -3.9390   12.9490   23.9010 N.4       1 SAH         0.0000 
      2 CA         -4.2000   11.9820   24.9600 C.3       1 SAH         0.0000 
      3 CB         -2.9430   11.1320   25.1840 C.3       1 SAH         0.0000 
      4 CG         -2.4920   10.4960   23.8630 C.3       1 SAH         0.0000 
      5 SD         -1.1570    9.2870   23.8890 S.3       1 SAH         0.0000 
      6 C          -4.7190   12.6510   26.2500 C.2       1 SAH         0.0000 
      7 O          -5.6170   13.5130   26.0830 O.2       1 SAH         0.0000 
      8 OXT        -4.5570   12.0620   27.3540 O         1 SAH         0.0000 
      9 C5'        -1.2660    8.7480   22.1870 C.3       1 SAH         0.0000 
     10 C4'        -2.5480    8.0170   21.8880 C.3       1 SAH         0.0000 
     11 O4'        -2.5910    7.8390   20.4400 O.3       1 SAH         0.0000 
     12 C3'        -2.7810    6.5900   22.6150 C.3       1 SAH         0.0000 
     13 O3'        -3.8780    6.6110   23.5890 O.3       1 SAH         0.0000 
     14 C2'        -3.0230    5.6880   21.3550 C.3       1 SAH         0.0000 
     15 O2'        -3.9020    4.5270   21.4480 O.3       1 SAH         0.0000 
     16 C1'        -3.4830    6.7390   20.3130 C.3       1 SAH         0.0000 
     17 N9         -3.4680    6.3410   18.9140 N.pl3     1 SAH         0.0000 
     18 C8         -2.4550    5.6770   18.2020 C.ar      1 SAH         0.0000 
     19 N7         -2.8580    5.2660   17.0360 N.pl3     1 SAH         0.0000 
     20 C5         -4.1920    5.7280   16.9550 C.ar      1 SAH         0.0000 
     21 C6         -5.1660    5.6140   15.9680 C.ar      1 SAH         0.0000 
     22 N6         -4.8690    5.1060   14.7690 N.pl3     1 SAH         0.0000 
     23 N1         -6.4250    5.9470   16.3060 N.ar      1 SAH         0.0000 
     24 C2         -6.6940    6.3660   17.5220 C.ar      1 SAH         0.0000 
     25 N3         -5.8590    6.6230   18.5010 N.ar      1 SAH         0.0000 
     26 C4         -4.5990    6.2900   18.1330 C.ar      1 SAH         0.0000 
     27 HN1        -3.5725   12.4235   23.0068 H         1 SAH         0.0000 
     28 HN2        -3.1794   13.6685   24.2406 H         1 SAH         0.0000 
     29 HA         -5.0139   11.3416   24.5893 H         1 SAH         0.0000 
     30 HB1        -2.1342   11.7687   25.5719 H         1 SAH         0.0000 
     31 HB2        -3.1633   10.3359   25.9104 H         1 SAH         0.0000 
     32 HG1        -3.3384    9.9635   23.4047 H         1 SAH         0.0000 
     33 HG2        -2.1397   11.2821   23.1790 H         1 SAH         0.0000 
     34 H5'1       -1.2145    9.6223   21.5215 H         1 SAH         0.0000 
     35 H5'2       -0.4311    8.0675   21.9637 H         1 SAH         0.0000 
     36 H4'        -3.3396    8.7048   22.2201 H         1 SAH         0.0000 
     37 H3'        -2.0188    6.2137   23.3131 H         1 SAH         0.0000 
     38 HO3'       -3.7912    7.2181   24.5022 H         1 SAH         0.0000 
     39 H2'        -2.1538    5.0605   21.1086 H         1 SAH         0.0000 
     40 HO2'       -3.6711    3.7177   22.1563 H         1 SAH         0.0000 
     41 H1'        -4.5349    7.0076   20.4900 H         1 SAH         0.0000 
     42 H8         -1.4190    5.4920   18.5340 H         1 SAH         0.0000 
     43 HN61       -3.8288    4.8443   14.5248 H         1 SAH         0.0000 
     44 HN62       -5.6646    4.9493   14.0257 H         1 SAH         0.0000 
     45 H2         -7.7610    6.5220   17.7510 H         1 SAH         0.0000 
     46 H46        -4.8681   13.4847   23.6565 H         1 SAH         0.0000 
     47 H47        -2.1757    4.6969   16.3874 H         1 SAH         0.0000 
@<TRIPOS>BOND
     1    1    2 1    
     2    1   27 1    
     3    1   28 1    
     4    1   46 1    
     5    2    3 1    
     6    2    6 1    
     7    2   29 1    
     8    3    4 1    
     9    3   30 1    
    10    3   31 1    
    11    4    5 1    
    12    4   32 1    
    13    4   33 1    
    14    5    9 1    
    15    6    7 2    
    16    6    8 1    
    17    9   10 1    
    18    9   34 1    
    19    9   35 1    
    20   10   11 1    
    21   10   12 1    
    22   10   36 1    
    23   11   16 1    
    24   12   13 1    
    25   12   14 1    
    26   12   37 1    
    27   13   38 1    
    28   14   15 1    
    29   14   16 1    
    30   14   39 1    
    31   15   40 1    
    32   16   17 1    
    33   16   41 1    
    34   17   18 ar   
    35   17   26 ar   
    36   18   19 ar   
    37   18   42 1    
    38   19   20 ar   
    39   19   47 1    
    40   20   21 ar   
    41   20   26 ar   
    42   21   22 1    
    43   21   23 ar   
    44   22   43 1    
    45   22   44 1    
    46   23   24 ar   
    47   24   25 ar   
    48   24   45 1    
    49   25   26 ar   
@<TRIPOS>SUBSTRUCTURE
     1 SAH         1 GROUP             0       ****    0 ROOT    
@<TRIPOS>MOLECULE
SAH
47   49    1
SMALL
USER_CHARGES


@<TRIPOS>ATOM
      1 N          -3.9390   12.9490   23.9010 N.4       1 SAH         0.0000 
      2 CA         -4.2000   11.9820   24.9600 C.3       1 SAH         0.0000 
      3 CB         -2.9430   11.1320   25.1840 C.3       1 SAH         0.0000 
      4 CG         -2.4920   10.4960   23.8630 C.3       1 SAH         0.0000 
      5 SD         -1.1570    9.2870   23.8890 S.3       1 SAH         0.0000 
      6 C          -4.7190   12.6510   26.2500 C.2       1 SAH         0.0000 
      7 O          -5.6170   13.5130   26.0830 O.co2     1 SAH         0.0000 
      8 OXT        -4.5570   12.0620   27.3540 O.co2     1 SAH         0.0000 
      9 C5'        -1.2660    8.7480   22.1870 C.3       1 SAH         0.0000 
     10 C4'        -2.5480    8.0170   21.8880 C.3       1 SAH         0.0000 
     11 O4'        -2.5910    7.8390   20.4400 O.3       1 SAH         0.0000 
     12 C3'        -2.7810    6.5900   22.6150 C.3       1 SAH         0.0000 
     13 O3'        -3.8780    6.6110   23.5890 O.3       1 SAH         0.0000 
     14 C2'        -3.0230    5.6880   21.3550 C.3       1 SAH         0.0000 
     15 O2'        -3.9020    4.5270   21.4480 O.3       1 SAH         0.0000 
     16 C1'        -3.4830    6.7390   20.3130 C.3       1 SAH         0.0000 
     17 N9         -3.4680    6.3410   18.9140 N.pl3     1 SAH         0.0000 
     18 C8         -2.4550    5.6770   18.2020 C.ar      1 SAH         0.0000 
     19 N7         -2.8580    5.2660   17.0360 N.2       1 SAH         0.0000 
     20 C5         -4.1920    5.7280   16.9550 C.ar      1 SAH         0.0000 
     21 C6         -5.1660    5.6140   15.9680 C.ar      1 SAH         0.0000 
     22 N6         -4.8690    5.1060   14.7690 N.pl3     1 SAH         0.0000 
     23 N1         -6.4250    5.9470   16.3060 N.ar      1 SAH         0.0000 
     24 C2         -6.6940    6.3660   17.5220 C.ar      1 SAH         0.0000 
     25 N3         -5.8590    6.6230   18.5010 N.ar      1 SAH         0.0000 
     26 C4         -4.5990    6.2900   18.1330 C.ar      1 SAH         0.0000 
     27 HN1        -3.5725   12.4235   23.0068 H         1 SAH         0.0000 
     28 HN2        -3.1794   13.6685   24.2406 H         1 SAH         0.0000 
     29 HA         -5.0139   11.3416   24.5893 H         1 SAH         0.0000 
     30 HB1        -2.1342   11.7687   25.5719 H         1 SAH         0.0000 
     31 HB2        -3.1633   10.3359   25.9104 H         1 SAH         0.0000 
     32 HG1        -3.3384    9.9635   23.4047 H         1 SAH         0.0000 
     33 HG2        -2.1397   11.2821   23.1790 H         1 SAH         0.0000 
     34 HXT        -3.7602   11.3119   27.4655 H         1 SAH         0.0000 
     35 H5'1       -1.2145    9.6223   21.5215 H         1 SAH         0.0000 
     36 H5'2       -0.4311    8.0675   21.9637 H         1 SAH         0.0000 
     37 H4'        -3.3396    8.7048   22.2201 H         1 SAH         0.0000 
     38 H3'        -2.0188    6.2137   23.3131 H         1 SAH         0.0000 
     39 HO3'       -3.7912    7.2181   24.5022 H         1 SAH         0.0000 
     40 H2'        -2.1538    5.0605   21.1086 H         1 SAH         0.0000 
     41 HO2'       -3.6711    3.7177   22.1563 H         1 SAH         0.0000 
     42 H1'        -4.5349    7.0076   20.4900 H         1 SAH         0.0000 
     43 H8         -1.4190    5.4920   18.5340 H         1 SAH         0.0000 
     44 HN61       -3.8288    4.8443   14.5248 H         1 SAH         0.0000 
     45 HN62       -5.6646    4.9493   14.0257 H         1 SAH         0.0000 
     46 H2         -7.7610    6.5220   17.7510 H         1 SAH         0.0000 
     47 H47        -4.8681   13.4847   23.6565 H         1 SAH         0.0000 
@<TRIPOS>BOND
     1    1    2 1    
     2    1   27 1    
     3    1   28 1    
     4    1   47 1    
     5    2    3 1    
     6    2    6 1    
     7    2   29 1    
     8    3    4 1    
     9    3   30 1    
    10    3   31 1    
    11    4    5 1    
    12    4   32 1    
    13    4   33 1    
    14    5    9 1    
    15    6    7 2    
    16    6    8 1    
    17    8   34 1    
    18    9   10 1    
    19    9   35 1    
    20    9   36 1    
    21   10   11 1    
    22   10   12 1    
    23   10   37 1    
    24   11   16 1    
    25   12   13 1    
    26   12   14 1    
    27   12   38 1    
    28   13   39 1    
    29   14   15 1    
    30   14   16 1    
    31   14   40 1    
    32   15   41 1    
    33   16   17 1    
    34   16   42 1    
    35   17   18 ar   
    36   17   26 ar   
    37   18   19 ar   
    38   18   43 1    
    39   19   20 ar   
    40   20   21 ar   
    41   20   26 ar   
    42   21   22 1    
    43   21   23 ar   
    44   22   44 1    
    45   22   45 1    
    46   23   24 ar   
    47   24   25 ar   
    48   24   46 1    
    49   25   26 ar   
@<TRIPOS>SUBSTRUCTURE
     1 SAH         1 GROUP             0       ****    0 ROOT    
@<TRIPOS>MOLECULE
SAH
47   49    1
SMALL
USER_CHARGES


@<TRIPOS>ATOM
      1 N          -3.9390   12.9490   23.9010 N.4       1 SAH         0.0000 
      2 CA         -4.2000   11.9820   24.9600 C.3       1 SAH         0.0000 
      3 CB         -2.9430   11.1320   25.1840 C.3       1 SAH         0.0000 
      4 CG         -2.4920   10.4960   23.8630 C.3       1 SAH         0.0000 
      5 SD         -1.1570    9.2870   23.8890 S.3       1 SAH         0.0000 
      6 C          -4.7190   12.6510   26.2500 C.2       1 SAH         0.0000 
      7 O          -5.6170   13.5130   26.0830 O.2       1 SAH         0.0000 
      8 OXT        -4.5570   12.0620   27.3540 O         1 SAH         0.0000 
      9 C5'        -1.2660    8.7480   22.1870 C.3       1 SAH         0.0000 
     10 C4'        -2.5480    8.0170   21.8880 C.3       1 SAH         0.0000 
     11 O4'        -2.5910    7.8390   20.4400 O.3       1 SAH         0.0000 
     12 C3'        -2.7810    6.5900   22.6150 C.3       1 SAH         0.0000 
     13 O3'        -3.8780    6.6110   23.5890 O.3       1 SAH         0.0000 
     14 C2'        -3.0230    5.6880   21.3550 C.3       1 SAH         0.0000 
     15 O2'        -3.9020    4.5270   21.4480 O.3       1 SAH         0.0000 
     16 C1'        -3.4830    6.7390   20.3130 C.3       1 SAH         0.0000 
     17 N9         -3.4680    6.3410   18.9140 N.pl3     1 SAH         0.0000 
     18 C8         -2.4550    5.6770   18.2020 C.ar      1 SAH         0.0000 
     19 N7         -2.8580    5.2660   17.0360 N.2       1 SAH         0.0000 
     20 C5         -4.1920    5.7280   16.9550 C.ar      1 SAH         0.0000 
     21 C6         -5.1660    5.6140   15.9680 C.ar      1 SAH         0.0000 
     22 N6         -4.8690    5.1060   14.7690 N.pl3     1 SAH         0.0000 
     23 N1         -6.4250    5.9470   16.3060 N.pl3     1 SAH         0.0000 
     24 C2         -6.6940    6.3660   17.5220 C.ar      1 SAH         0.0000 
     25 N3         -5.8590    6.6230   18.5010 N.ar      1 SAH         0.0000 
     26 C4         -4.5990    6.2900   18.1330 C.ar      1 SAH         0.0000 
     27 HN1        -3.5725   12.4235   23.0068 H         1 SAH         0.0000 
     28 HN2        -3.1794   13.6685   24.2406 H         1 SAH         0.0000 
     29 HA         -5.0139   11.3416   24.5893 H         1 SAH         0.0000 
     30 HB1        -2.1342   11.7687   25.5719 H         1 SAH         0.0000 
     31 HB2        -3.1633   10.3359   25.9104 H         1 SAH         0.0000 
     32 HG1        -3.3384    9.9635   23.4047 H         1 SAH         0.0000 
     33 HG2        -2.1397   11.2821   23.1790 H         1 SAH         0.0000 
     34 H5'1       -1.2145    9.6223   21.5215 H         1 SAH         0.0000 
     35 H5'2       -0.4311    8.0675   21.9637 H         1 SAH         0.0000 
     36 H4'        -3.3396    8.7048   22.2201 H         1 SAH         0.0000 
     37 H3'        -2.0188    6.2137   23.3131 H         1 SAH         0.0000 
     38 HO3'       -3.7912    7.2181   24.5022 H         1 SAH         0.0000 
     39 H2'        -2.1538    5.0605   21.1086 H         1 SAH         0.0000 
     40 HO2'       -3.6711    3.7177   22.1563 H         1 SAH         0.0000 
     41 H1'        -4.5349    7.0076   20.4900 H         1 SAH         0.0000 
     42 H8         -1.4190    5.4920   18.5340 H         1 SAH         0.0000 
     43 HN61       -3.8288    4.8443   14.5248 H         1 SAH         0.0000 
     44 HN62       -5.6646    4.9493   14.0257 H         1 SAH         0.0000 
     45 H2         -7.7610    6.5220   17.7510 H         1 SAH         0.0000 
     46 H46        -4.8681   13.4847   23.6565 H         1 SAH         0.0000 
     47 H47        -7.2328    5.8689   15.5634 H         1 SAH         0.0000 
@<TRIPOS>BOND
     1    1    2 1    
     2    1   27 1    
     3    1   28 1    
     4    1   46 1    
     5    2    3 1    
     6    2    6 1    
     7    2   29 1    
     8    3    4 1    
     9    3   30 1    
    10    3   31 1    
    11    4    5 1    
    12    4   32 1    
    13    4   33 1    
    14    5    9 1    
    15    6    7 2    
    16    6    8 1    
    17    9   10 1    
    18    9   34 1    
    19    9   35 1    
    20   10   11 1    
    21   10   12 1    
    22   10   36 1    
    23   11   16 1    
    24   12   13 1    
    25   12   14 1    
    26   12   37 1    
    27   13   38 1    
    28   14   15 1    
    29   14   16 1    
    30   14   39 1    
    31   15   40 1    
    32   16   17 1    
    33   16   41 1    
    34   17   18 ar   
    35   17   26 ar   
    36   18   19 ar   
    37   18   42 1    
    38   19   20 ar   
    39   20   21 ar   
    40   20   26 ar   
    41   21   22 1    
    42   21   23 ar   
    43   22   43 1    
    44   22   44 1    
    45   23   24 ar   
    46   23   47 1    
    47   24   25 ar   
    48   24   45 1    
    49   25   26 ar   
@<TRIPOS>SUBSTRUCTURE
     1 SAH         1 GROUP             0       ****    0 ROOT    
@<TRIPOS>MOLECULE
SAH
48   50    1
SMALL
USER_CHARGES


@<TRIPOS>ATOM
      1 N          -3.9390   12.9490   23.9010 N.4       1 SAH         0.0000 
      2 CA         -4.2000   11.9820   24.9600 C.3       1 SAH         0.0000 
      3 CB         -2.9430   11.1320   25.1840 C.3       1 SAH         0.0000 
      4 CG         -2.4920   10.4960   23.8630 C.3       1 SAH         0.0000 
      5 SD         -1.1570    9.2870   23.8890 S.3       1 SAH         0.0000 
      6 C          -4.7190   12.6510   26.2500 C.2       1 SAH         0.0000 
      7 O          -5.6170   13.5130   26.0830 O.co2     1 SAH         0.0000 
      8 OXT        -4.5570   12.0620   27.3540 O.co2     1 SAH         0.0000 
      9 C5'        -1.2660    8.7480   22.1870 C.3       1 SAH         0.0000 
     10 C4'        -2.5480    8.0170   21.8880 C.3       1 SAH         0.0000 
     11 O4'        -2.5910    7.8390   20.4400 O.3       1 SAH         0.0000 
     12 C3'        -2.7810    6.5900   22.6150 C.3       1 SAH         0.0000 
     13 O3'        -3.8780    6.6110   23.5890 O.3       1 SAH         0.0000 
     14 C2'        -3.0230    5.6880   21.3550 C.3       1 SAH         0.0000 
     15 O2'        -3.9020    4.5270   21.4480 O.3       1 SAH         0.0000 
     16 C1'        -3.4830    6.7390   20.3130 C.3       1 SAH         0.0000 
     17 N9         -3.4680    6.3410   18.9140 N.pl3     1 SAH         0.0000 
     18 C8         -2.4550    5.6770   18.2020 C.ar      1 SAH         0.0000 
     19 N7         -2.8580    5.2660   17.0360 N.pl3     1 SAH         0.0000 
     20 C5         -4.1920    5.7280   16.9550 C.ar      1 SAH         0.0000 
     21 C6         -5.1660    5.6140   15.9680 C.ar      1 SAH         0.0000 
     22 N6         -4.8690    5.1060   14.7690 N.pl3     1 SAH         0.0000 
     23 N1         -6.4250    5.9470   16.3060 N.ar      1 SAH         0.0000 
     24 C2         -6.6940    6.3660   17.5220 C.ar      1 SAH         0.0000 
     25 N3         -5.8590    6.6230   18.5010 N.ar      1 SAH         0.0000 
     26 C4         -4.5990    6.2900   18.1330 C.ar      1 SAH         0.0000 
     27 HN1        -3.5725   12.4235   23.0068 H         1 SAH         0.0000 
     28 HN2        -3.1794   13.6685   24.2406 H         1 SAH         0.0000 
     29 HA         -5.0139   11.3416   24.5893 H         1 SAH         0.0000 
     30 HB1        -2.1342   11.7687   25.5719 H         1 SAH         0.0000 
     31 HB2        -3.1633   10.3359   25.9104 H         1 SAH         0.0000 
     32 HG1        -3.3384    9.9635   23.4047 H         1 SAH         0.0000 
     33 HG2        -2.1397   11.2821   23.1790 H         1 SAH         0.0000 
     34 HXT        -3.7602   11.3119   27.4655 H         1 SAH         0.0000 
     35 H5'1       -1.2145    9.6223   21.5215 H         1 SAH         0.0000 
     36 H5'2       -0.4311    8.0675   21.9637 H         1 SAH         0.0000 
     37 H4'        -3.3396    8.7048   22.2201 H         1 SAH         0.0000 
     38 H3'        -2.0188    6.2137   23.3131 H         1 SAH         0.0000 
     39 HO3'       -3.7912    7.2181   24.5022 H         1 SAH         0.0000 
     40 H2'        -2.1538    5.0605   21.1086 H         1 SAH         0.0000 
     41 HO2'       -3.6711    3.7177   22.1563 H         1 SAH         0.0000 
     42 H1'        -4.5349    7.0076   20.4900 H         1 SAH         0.0000 
     43 H8         -1.4190    5.4920   18.5340 H         1 SAH         0.0000 
     44 HN61       -3.8288    4.8443   14.5248 H         1 SAH         0.0000 
     45 HN62       -5.6646    4.9493   14.0257 H         1 SAH         0.0000 
     46 H2         -7.7610    6.5220   17.7510 H         1 SAH         0.0000 
     47 H47        -4.8681   13.4847   23.6565 H         1 SAH         0.0000 
     48 H48        -2.1757    4.6969   16.3874 H         1 SAH         0.0000 
@<TRIPOS>BOND
     1    1    2 1    
     2    1   27 1    
     3    1   28 1    
     4    1   47 1    
     5    2    3 1    
     6    2    6 1    
     7    2   29 1    
     8    3    4 1    
     9    3   30 1    
    10    3   31 1    
    11    4    5 1    
    12    4   32 1    
    13    4   33 1    
    14    5    9 1    
    15    6    7 2    
    16    6    8 1    
    17    8   34 1    
    18    9   10 1    
    19    9   35 1    
    20    9   36 1    
    21   10   11 1    
    22   10   12 1    
    23   10   37 1    
    24   11   16 1    
    25   12   13 1    
    26   12   14 1    
    27   12   38 1    
    28   13   39 1    
    29   14   15 1    
    30   14   16 1    
    31   14   40 1    
    32   15   41 1    
    33   16   17 1    
    34   16   42 1    
    35   17   18 ar   
    36   17   26 ar   
    37   18   19 ar   
    38   18   43 1    
    39   19   20 ar   
    40   19   48 1    
    41   20   21 ar   
    42   20   26 ar   
    43   21   22 1    
    44   21   23 ar   
    45   22   44 1    
    46   22   45 1    
    47   23   24 ar   
    48   24   25 ar   
    49   24   46 1    
    50   25   26 ar   
@<TRIPOS>SUBSTRUCTURE
     1 SAH         1 GROUP             0       ****    0 ROOT    
@<TRIPOS>MOLECULE
SAH
45   47    1
SMALL
USER_CHARGES


@<TRIPOS>ATOM
      1 N          -3.9390   12.9490   23.9010 N.3       1 SAH         0.0000 
      2 CA         -4.2000   11.9820   24.9600 C.3       1 SAH         0.0000 
      3 CB         -2.9430   11.1320   25.1840 C.3       1 SAH         0.0000 
      4 CG         -2.4920   10.4960   23.8630 C.3       1 SAH         0.0000 
      5 SD         -1.1570    9.2870   23.8890 S.3       1 SAH         0.0000 
      6 C          -4.7190   12.6510   26.2500 C.2       1 SAH         0.0000 
      7 O          -5.6170   13.5130   26.0830 O.2       1 SAH         0.0000 
      8 OXT        -4.5570   12.0620   27.3540 O         1 SAH         0.0000 
      9 C5'        -1.2660    8.7480   22.1870 C.3       1 SAH         0.0000 
     10 C4'        -2.5480    8.0170   21.8880 C.3       1 SAH         0.0000 
     11 O4'        -2.5910    7.8390   20.4400 O.3       1 SAH         0.0000 
     12 C3'        -2.7810    6.5900   22.6150 C.3       1 SAH         0.0000 
     13 O3'        -3.8780    6.6110   23.5890 O.3       1 SAH         0.0000 
     14 C2'        -3.0230    5.6880   21.3550 C.3       1 SAH         0.0000 
     15 O2'        -3.9020    4.5270   21.4480 O.3       1 SAH         0.0000 
     16 C1'        -3.4830    6.7390   20.3130 C.3       1 SAH         0.0000 
     17 N9         -3.4680    6.3410   18.9140 N.pl3     1 SAH         0.0000 
     18 C8         -2.4550    5.6770   18.2020 C.ar      1 SAH         0.0000 
     19 N7         -2.8580    5.2660   17.0360 N.2       1 SAH         0.0000 
     20 C5         -4.1920    5.7280   16.9550 C.ar      1 SAH         0.0000 
     21 C6         -5.1660    5.6140   15.9680 C.ar      1 SAH         0.0000 
     22 N6         -4.8690    5.1060   14.7690 N.pl3     1 SAH         0.0000 
     23 N1         -6.4250    5.9470   16.3060 N.ar      1 SAH         0.0000 
     24 C2         -6.6940    6.3660   17.5220 C.ar      1 SAH         0.0000 
     25 N3         -5.8590    6.6230   18.5010 N.ar      1 SAH         0.0000 
     26 C4         -4.5990    6.2900   18.1330 C.ar      1 SAH         0.0000 
     27 HN1        -3.1283   13.6241   24.2126 H         1 SAH         0.0000 
     28 HN2        -3.6421   12.4179   22.9846 H         1 SAH         0.0000 
     29 HA         -5.0139   11.3416   24.5893 H         1 SAH         0.0000 
     30 HB1        -2.1342   11.7687   25.5719 H         1 SAH         0.0000 
     31 HB2        -3.1633   10.3359   25.9104 H         1 SAH         0.0000 
     32 HG1        -3.3384    9.9635   23.4047 H         1 SAH         0.0000 
     33 HG2        -2.1397   11.2821   23.1790 H         1 SAH         0.0000 
     34 H5'1       -1.2145    9.6223   21.5215 H         1 SAH         0.0000 
     35 H5'2       -0.4311    8.0675   21.9637 H         1 SAH         0.0000 
     36 H4'        -3.3396    8.7048   22.2201 H         1 SAH         0.0000 
     37 H3'        -2.0188    6.2137   23.3131 H         1 SAH         0.0000 
     38 HO3'       -3.7912    7.2181   24.5022 H         1 SAH         0.0000 
     39 H2'        -2.1538    5.0605   21.1086 H         1 SAH         0.0000 
     40 HO2'       -3.6711    3.7177   22.1563 H         1 SAH         0.0000 
     41 H1'        -4.5349    7.0076   20.4900 H         1 SAH         0.0000 
     42 H8         -1.4190    5.4920   18.5340 H         1 SAH         0.0000 
     43 HN61       -3.8288    4.8443   14.5248 H         1 SAH         0.0000 
     44 HN62       -5.6646    4.9493   14.0257 H         1 SAH         0.0000 
     45 H2         -7.7610    6.5220   17.7510 H         1 SAH         0.0000 
@<TRIPOS>BOND
     1    1    2 1    
     2    1   27 1    
     3    1   28 1    
     4    2    3 1    
     5    2    6 1    
     6    2   29 1    
     7    3    4 1    
     8    3   30 1    
     9    3   31 1    
    10    4    5 1    
    11    4   32 1    
    12    4   33 1    
    13    5    9 1    
    14    6    7 2    
    15    6    8 1    
    16    9   10 1    
    17    9   34 1    
    18    9   35 1    
    19   10   11 1    
    20   10   12 1    
    21   10   36 1    
    22   11   16 1    
    23   12   13 1    
    24   12   14 1    
    25   12   37 1    
    26   13   38 1    
    27   14   15 1    
    28   14   16 1    
    29   14   39 1    
    30   15   40 1    
    31   16   17 1    
    32   16   41 1    
    33   17   18 ar   
    34   17   26 ar   
    35   18   19 ar   
    36   18   42 1    
    37   19   20 ar   
    38   20   21 ar   
    39   20   26 ar   
    40   21   22 1    
    41   21   23 ar   
    42   22   43 1    
    43   22   44 1    
    44   23   24 ar   
    45   24   25 ar   
    46   24   45 1    
    47   25   26 ar   
@<TRIPOS>SUBSTRUCTURE
     1 SAH         1 GROUP             0       ****    0 ROOT    
