SAH
                    3D
 Structure written by MMmdl.
 46 48  0  0  1  0            999 V2000
   -3.9390   12.9490   23.9010 N   0  3  0  0  0  0
   -4.2000   11.9820   24.9600 C   0  0  1  0  0  0
   -2.9430   11.1320   25.1840 C   0  0  0  0  0  0
   -2.4920   10.4960   23.8630 C   0  0  0  0  0  0
   -1.1570    9.2870   23.8890 S   0  0  0  0  0  0
   -4.7190   12.6510   26.2500 C   0  0  0  0  0  0
   -5.6170   13.5130   26.0830 O   0  0  0  0  0  0
   -4.5570   12.0620   27.3540 O   0  6  0  0  0  0
   -1.2660    8.7480   22.1870 C   0  0  0  0  0  0
   -2.5480    8.0170   21.8880 C   0  0  1  0  0  0
   -2.5910    7.8390   20.4400 O   0  0  0  0  0  0
   -2.7810    6.5900   22.6150 C   0  0  1  0  0  0
   -3.8780    6.6110   23.5890 O   0  0  0  0  0  0
   -3.0230    5.6880   21.3550 C   0  0  1  0  0  0
   -3.9020    4.5270   21.4480 O   0  0  0  0  0  0
   -3.4830    6.7390   20.3130 C   0  0  2  0  0  0
   -3.4680    6.3410   18.9140 N   0  0  0  0  0  0
   -2.4550    5.6770   18.2020 C   0  0  0  0  0  0
   -2.8580    5.2660   17.0360 N   0  0  0  0  0  0
   -4.1920    5.7280   16.9550 C   0  0  0  0  0  0
   -5.1660    5.6140   15.9680 C   0  0  0  0  0  0
   -4.8690    5.1060   14.7690 N   0  0  0  0  0  0
   -6.4250    5.9470   16.3060 N   0  0  0  0  0  0
   -6.6940    6.3660   17.5220 C   0  0  0  0  0  0
   -5.8590    6.6230   18.5010 N   0  0  0  0  0  0
   -4.5990    6.2900   18.1330 C   0  0  0  0  0  0
   -3.5725   12.4235   23.0068 H   0  0  0  0  0  0
   -3.1794   13.6685   24.2406 H   0  0  0  0  0  0
   -5.0139   11.3416   24.5893 H   0  0  0  0  0  0
   -2.1342   11.7687   25.5719 H   0  0  0  0  0  0
   -3.1633   10.3359   25.9104 H   0  0  0  0  0  0
   -3.3384    9.9635   23.4047 H   0  0  0  0  0  0
   -2.1397   11.2821   23.1790 H   0  0  0  0  0  0
   -1.2145    9.6223   21.5215 H   0  0  0  0  0  0
   -0.4311    8.0675   21.9637 H   0  0  0  0  0  0
   -3.3396    8.7048   22.2201 H   0  0  0  0  0  0
   -2.0188    6.2137   23.3131 H   0  0  0  0  0  0
   -3.7912    7.2181   24.5022 H   0  0  0  0  0  0
   -2.1538    5.0605   21.1086 H   0  0  0  0  0  0
   -3.6711    3.7177   22.1563 H   0  0  0  0  0  0
   -4.5349    7.0076   20.4900 H   0  0  0  0  0  0
   -1.4190    5.4920   18.5340 H   0  0  0  0  0  0
   -3.8288    4.8443   14.5248 H   0  0  0  0  0  0
   -5.6646    4.9493   14.0257 H   0  0  0  0  0  0
   -7.7610    6.5220   17.7510 H   0  0  0  0  0  0
   -4.8681   13.4847   23.6565 H   0  0  0  0  0  0
  1  2  1  0  0  0
  1 27  1  0  0  0
  1 28  1  0  0  0
  1 46  1  0  0  0
  2  3  1  0  0  0
  2  6  1  0  0  0
  2 29  1  0  0  0
  3  4  1  0  0  0
  3 30  1  0  0  0
  3 31  1  0  0  0
  4  5  1  0  0  0
  4 32  1  0  0  0
  4 33  1  0  0  0
  5  9  1  0  0  0
  6  7  2  0  0  0
  6  8  1  0  0  0
  9 10  1  0  0  0
  9 34  1  0  0  0
  9 35  1  0  0  0
 10 11  1  0  0  0
 10 12  1  0  0  0
 10 36  1  0  0  0
 11 16  1  0  0  0
 12 13  1  0  0  0
 12 14  1  0  0  0
 12 37  1  0  0  0
 13 38  1  0  0  0
 14 15  1  0  0  0
 14 16  1  0  0  0
 14 39  1  0  0  0
 15 40  1  0  0  0
 16 17  1  0  0  0
 16 41  1  0  0  0
 17 18  1  0  0  0
 17 26  1  0  0  0
 18 19  2  0  0  0
 18 42  1  0  0  0
 19 20  1  0  0  0
 20 21  2  0  0  0
 20 26  1  0  0  0
 21 22  1  0  0  0
 21 23  1  0  0  0
 22 43  1  0  0  0
 22 44  1  0  0  0
 23 24  2  0  0  0
 24 25  1  0  0  0
 24 45  1  0  0  0
 25 26  2  0  0  0
M  CHG  2   1   1   8  -2
M  END
> <s_m_source_file>
/cbio/jclab/home/rustenburg/PFK/Epik-Ligands/Results/InProgress/S-ADENOSYL-L-HOMOCYSTEINE/pH_4.0/S-ADENOSYL-L-HOMOCYSTEINE_pH_4.0-before_epik.mol2

> <i_m_source_file_index>
1

> <r_lp_tautomer_probability>
0.999997216410988

> <r_epik_Ionization_Penalty>
  0.3251

> <r_epik_Ionization_Penalty_Charging>
  0.0007

> <r_epik_Ionization_Penalty_Neutral>
  0.3245

> <r_epik_State_Penalty>
  0.0042

> <r_epik_Charging_Adjusted_Penalty>
0.00482955221871931

> <i_epik_Tot_Q>
-1

> <i_epik_Tot_abs_Q>
3

> <s_epik_Chemistry_Notes>
This compound contains an acetal/aminal-like group ( X-CH(R)-Y where X, Y are N, S, or O) that may be acid/base labile, releasing an aldehyde.

$$$$
SAH
                    3D
 Structure written by MMmdl.
 47 49  0  0  1  0            999 V2000
   -3.9390   12.9490   23.9010 N   0  3  0  0  0  0
   -4.2000   11.9820   24.9600 C   0  0  1  0  0  0
   -2.9430   11.1320   25.1840 C   0  0  0  0  0  0
   -2.4920   10.4960   23.8630 C   0  0  0  0  0  0
   -1.1570    9.2870   23.8890 S   0  0  0  0  0  0
   -4.7190   12.6510   26.2500 C   0  0  0  0  0  0
   -5.6170   13.5130   26.0830 O   0  0  0  0  0  0
   -4.5570   12.0620   27.3540 O   0  6  0  0  0  0
   -1.2660    8.7480   22.1870 C   0  0  0  0  0  0
   -2.5480    8.0170   21.8880 C   0  0  1  0  0  0
   -2.5910    7.8390   20.4400 O   0  0  0  0  0  0
   -2.7810    6.5900   22.6150 C   0  0  1  0  0  0
   -3.8780    6.6110   23.5890 O   0  0  0  0  0  0
   -3.0230    5.6880   21.3550 C   0  0  1  0  0  0
   -3.9020    4.5270   21.4480 O   0  0  0  0  0  0
   -3.4830    6.7390   20.3130 C   0  0  2  0  0  0
   -3.4680    6.3410   18.9140 N   0  0  0  0  0  0
   -2.4550    5.6770   18.2020 C   0  0  0  0  0  0
   -2.8580    5.2660   17.0360 N   0  3  0  0  0  0
   -4.1920    5.7280   16.9550 C   0  0  0  0  0  0
   -5.1660    5.6140   15.9680 C   0  0  0  0  0  0
   -4.8690    5.1060   14.7690 N   0  0  0  0  0  0
   -6.4250    5.9470   16.3060 N   0  0  0  0  0  0
   -6.6940    6.3660   17.5220 C   0  0  0  0  0  0
   -5.8590    6.6230   18.5010 N   0  0  0  0  0  0
   -4.5990    6.2900   18.1330 C   0  0  0  0  0  0
   -3.5725   12.4235   23.0068 H   0  0  0  0  0  0
   -3.1794   13.6685   24.2406 H   0  0  0  0  0  0
   -5.0139   11.3416   24.5893 H   0  0  0  0  0  0
   -2.1342   11.7687   25.5719 H   0  0  0  0  0  0
   -3.1633   10.3359   25.9104 H   0  0  0  0  0  0
   -3.3384    9.9635   23.4047 H   0  0  0  0  0  0
   -2.1397   11.2821   23.1790 H   0  0  0  0  0  0
   -1.2145    9.6223   21.5215 H   0  0  0  0  0  0
   -0.4311    8.0675   21.9637 H   0  0  0  0  0  0
   -3.3396    8.7048   22.2201 H   0  0  0  0  0  0
   -2.0188    6.2137   23.3131 H   0  0  0  0  0  0
   -3.7912    7.2181   24.5022 H   0  0  0  0  0  0
   -2.1538    5.0605   21.1086 H   0  0  0  0  0  0
   -3.6711    3.7177   22.1563 H   0  0  0  0  0  0
   -4.5349    7.0076   20.4900 H   0  0  0  0  0  0
   -1.4190    5.4920   18.5340 H   0  0  0  0  0  0
   -3.8288    4.8443   14.5248 H   0  0  0  0  0  0
   -5.6646    4.9493   14.0257 H   0  0  0  0  0  0
   -7.7610    6.5220   17.7510 H   0  0  0  0  0  0
   -4.8681   13.4847   23.6565 H   0  0  0  0  0  0
   -2.1757    4.6969   16.3874 H   0  0  0  0  0  0
  1  2  1  0  0  0
  1 27  1  0  0  0
  1 28  1  0  0  0
  1 46  1  0  0  0
  2  3  1  0  0  0
  2  6  1  0  0  0
  2 29  1  0  0  0
  3  4  1  0  0  0
  3 30  1  0  0  0
  3 31  1  0  0  0
  4  5  1  0  0  0
  4 32  1  0  0  0
  4 33  1  0  0  0
  5  9  1  0  0  0
  6  7  2  0  0  0
  6  8  1  0  0  0
  9 10  1  0  0  0
  9 34  1  0  0  0
  9 35  1  0  0  0
 10 11  1  0  0  0
 10 12  1  0  0  0
 10 36  1  0  0  0
 11 16  1  0  0  0
 12 13  1  0  0  0
 12 14  1  0  0  0
 12 37  1  0  0  0
 13 38  1  0  0  0
 14 15  1  0  0  0
 14 16  1  0  0  0
 14 39  1  0  0  0
 15 40  1  0  0  0
 16 17  1  0  0  0
 16 41  1  0  0  0
 17 18  1  0  0  0
 17 26  1  0  0  0
 18 19  2  0  0  0
 18 42  1  0  0  0
 19 20  1  0  0  0
 19 47  1  0  0  0
 20 21  2  0  0  0
 20 26  1  0  0  0
 21 22  1  0  0  0
 21 23  1  0  0  0
 22 43  1  0  0  0
 22 44  1  0  0  0
 23 24  2  0  0  0
 24 25  1  0  0  0
 24 45  1  0  0  0
 25 26  2  0  0  0
M  CHG  3   1   1   8  -2  19   1
M  END
> <s_m_source_file>
/cbio/jclab/home/rustenburg/PFK/Epik-Ligands/Results/InProgress/S-ADENOSYL-L-HOMOCYSTEINE/pH_4.0/S-ADENOSYL-L-HOMOCYSTEINE_pH_4.0-before_epik.mol2

> <i_m_source_file_index>
1

> <r_epik_Ionization_Penalty>
  1.9143

> <r_epik_Ionization_Penalty_Charging>
  1.9064

> <r_epik_Ionization_Penalty_Neutral>
  0.0079

> <r_epik_State_Penalty>
  3.2721

> <r_epik_Charging_Adjusted_Penalty>
5.17852732330113

> <i_epik_Tot_Q>
0

> <i_epik_Tot_abs_Q>
4

> <s_epik_Chemistry_Notes>
This compound contains an acetal/aminal-like group ( X-CH(R)-Y where X, Y are N, S, or O) that may be acid/base labile, releasing an aldehyde.

$$$$
SAH
                    3D
 Structure written by MMmdl.
 47 49  0  0  1  0            999 V2000
   -3.9390   12.9490   23.9010 N   0  3  0  0  0  0
   -4.2000   11.9820   24.9600 C   0  0  1  0  0  0
   -2.9430   11.1320   25.1840 C   0  0  0  0  0  0
   -2.4920   10.4960   23.8630 C   0  0  0  0  0  0
   -1.1570    9.2870   23.8890 S   0  0  0  0  0  0
   -4.7190   12.6510   26.2500 C   0  0  0  0  0  0
   -5.6170   13.5130   26.0830 O   0  0  0  0  0  0
   -4.5570   12.0620   27.3540 O   0  5  0  0  0  0
   -1.2660    8.7480   22.1870 C   0  0  0  0  0  0
   -2.5480    8.0170   21.8880 C   0  0  1  0  0  0
   -2.5910    7.8390   20.4400 O   0  0  0  0  0  0
   -2.7810    6.5900   22.6150 C   0  0  1  0  0  0
   -3.8780    6.6110   23.5890 O   0  0  0  0  0  0
   -3.0230    5.6880   21.3550 C   0  0  1  0  0  0
   -3.9020    4.5270   21.4480 O   0  0  0  0  0  0
   -3.4830    6.7390   20.3130 C   0  0  2  0  0  0
   -3.4680    6.3410   18.9140 N   0  0  0  0  0  0
   -2.4550    5.6770   18.2020 C   0  0  0  0  0  0
   -2.8580    5.2660   17.0360 N   0  0  0  0  0  0
   -4.1920    5.7280   16.9550 C   0  0  0  0  0  0
   -5.1660    5.6140   15.9680 C   0  0  0  0  0  0
   -4.8690    5.1060   14.7690 N   0  0  0  0  0  0
   -6.4250    5.9470   16.3060 N   0  0  0  0  0  0
   -6.6940    6.3660   17.5220 C   0  0  0  0  0  0
   -5.8590    6.6230   18.5010 N   0  0  0  0  0  0
   -4.5990    6.2900   18.1330 C   0  0  0  0  0  0
   -3.5725   12.4235   23.0068 H   0  0  0  0  0  0
   -3.1794   13.6685   24.2406 H   0  0  0  0  0  0
   -5.0139   11.3416   24.5893 H   0  0  0  0  0  0
   -2.1342   11.7687   25.5719 H   0  0  0  0  0  0
   -3.1633   10.3359   25.9104 H   0  0  0  0  0  0
   -3.3384    9.9635   23.4047 H   0  0  0  0  0  0
   -2.1397   11.2821   23.1790 H   0  0  0  0  0  0
   -3.7602   11.3119   27.4655 H   0  0  0  0  0  0
   -1.2145    9.6223   21.5215 H   0  0  0  0  0  0
   -0.4311    8.0675   21.9637 H   0  0  0  0  0  0
   -3.3396    8.7048   22.2201 H   0  0  0  0  0  0
   -2.0188    6.2137   23.3131 H   0  0  0  0  0  0
   -3.7912    7.2181   24.5022 H   0  0  0  0  0  0
   -2.1538    5.0605   21.1086 H   0  0  0  0  0  0
   -3.6711    3.7177   22.1563 H   0  0  0  0  0  0
   -4.5349    7.0076   20.4900 H   0  0  0  0  0  0
   -1.4190    5.4920   18.5340 H   0  0  0  0  0  0
   -3.8288    4.8443   14.5248 H   0  0  0  0  0  0
   -5.6646    4.9493   14.0257 H   0  0  0  0  0  0
   -7.7610    6.5220   17.7510 H   0  0  0  0  0  0
   -4.8681   13.4847   23.6565 H   0  0  0  0  0  0
  1  2  1  0  0  0
  1 27  1  0  0  0
  1 28  1  0  0  0
  1 47  1  0  0  0
  2  3  1  0  0  0
  2  6  1  0  0  0
  2 29  1  0  0  0
  3  4  1  0  0  0
  3 30  1  0  0  0
  3 31  1  0  0  0
  4  5  1  0  0  0
  4 32  1  0  0  0
  4 33  1  0  0  0
  5  9  1  0  0  0
  6  7  2  0  0  0
  6  8  1  0  0  0
  8 34  1  0  0  0
  9 10  1  0  0  0
  9 35  1  0  0  0
  9 36  1  0  0  0
 10 11  1  0  0  0
 10 12  1  0  0  0
 10 37  1  0  0  0
 11 16  1  0  0  0
 12 13  1  0  0  0
 12 14  1  0  0  0
 12 38  1  0  0  0
 13 39  1  0  0  0
 14 15  1  0  0  0
 14 16  1  0  0  0
 14 40  1  0  0  0
 15 41  1  0  0  0
 16 17  1  0  0  0
 16 42  1  0  0  0
 17 18  1  0  0  0
 17 26  1  0  0  0
 18 19  2  0  0  0
 18 43  1  0  0  0
 19 20  1  0  0  0
 20 21  2  0  0  0
 20 26  1  0  0  0
 21 22  1  0  0  0
 21 23  1  0  0  0
 22 44  1  0  0  0
 22 45  1  0  0  0
 23 24  2  0  0  0
 24 25  1  0  0  0
 24 46  1  0  0  0
 25 26  2  0  0  0
M  CHG  2   1   1   8  -1
M  END
> <s_m_source_file>
/cbio/jclab/home/rustenburg/PFK/Epik-Ligands/Results/InProgress/S-ADENOSYL-L-HOMOCYSTEINE/pH_4.0/S-ADENOSYL-L-HOMOCYSTEINE_pH_4.0-before_epik.mol2

> <i_m_source_file_index>
1

> <r_epik_Ionization_Penalty>
  2.7008

> <r_epik_Ionization_Penalty_Charging>
  0.0054

> <r_epik_Ionization_Penalty_Neutral>
  2.6954

> <r_epik_State_Penalty>
  3.8434

> <r_epik_Charging_Adjusted_Penalty>
3.8488750922808

> <i_epik_Tot_Q>
0

> <i_epik_Tot_abs_Q>
2

> <s_epik_Chemistry_Notes>
This compound contains an acetal/aminal-like group ( X-CH(R)-Y where X, Y are N, S, or O) that may be acid/base labile, releasing an aldehyde.

$$$$
SAH
                    3D
 Structure written by MMmdl.
 47 49  0  0  1  0            999 V2000
   -3.9390   12.9490   23.9010 N   0  3  0  0  0  0
   -4.2000   11.9820   24.9600 C   0  0  1  0  0  0
   -2.9430   11.1320   25.1840 C   0  0  0  0  0  0
   -2.4920   10.4960   23.8630 C   0  0  0  0  0  0
   -1.1570    9.2870   23.8890 S   0  0  0  0  0  0
   -4.7190   12.6510   26.2500 C   0  0  0  0  0  0
   -5.6170   13.5130   26.0830 O   0  0  0  0  0  0
   -4.5570   12.0620   27.3540 O   0  6  0  0  0  0
   -1.2660    8.7480   22.1870 C   0  0  0  0  0  0
   -2.5480    8.0170   21.8880 C   0  0  1  0  0  0
   -2.5910    7.8390   20.4400 O   0  0  0  0  0  0
   -2.7810    6.5900   22.6150 C   0  0  1  0  0  0
   -3.8780    6.6110   23.5890 O   0  0  0  0  0  0
   -3.0230    5.6880   21.3550 C   0  0  1  0  0  0
   -3.9020    4.5270   21.4480 O   0  0  0  0  0  0
   -3.4830    6.7390   20.3130 C   0  0  2  0  0  0
   -3.4680    6.3410   18.9140 N   0  0  0  0  0  0
   -2.4550    5.6770   18.2020 C   0  0  0  0  0  0
   -2.8580    5.2660   17.0360 N   0  0  0  0  0  0
   -4.1920    5.7280   16.9550 C   0  0  0  0  0  0
   -5.1660    5.6140   15.9680 C   0  0  0  0  0  0
   -4.8690    5.1060   14.7690 N   0  0  0  0  0  0
   -6.4250    5.9470   16.3060 N   0  3  0  0  0  0
   -6.6940    6.3660   17.5220 C   0  0  0  0  0  0
   -5.8590    6.6230   18.5010 N   0  0  0  0  0  0
   -4.5990    6.2900   18.1330 C   0  0  0  0  0  0
   -3.5725   12.4235   23.0068 H   0  0  0  0  0  0
   -3.1794   13.6685   24.2406 H   0  0  0  0  0  0
   -5.0139   11.3416   24.5893 H   0  0  0  0  0  0
   -2.1342   11.7687   25.5719 H   0  0  0  0  0  0
   -3.1633   10.3359   25.9104 H   0  0  0  0  0  0
   -3.3384    9.9635   23.4047 H   0  0  0  0  0  0
   -2.1397   11.2821   23.1790 H   0  0  0  0  0  0
   -1.2145    9.6223   21.5215 H   0  0  0  0  0  0
   -0.4311    8.0675   21.9637 H   0  0  0  0  0  0
   -3.3396    8.7048   22.2201 H   0  0  0  0  0  0
   -2.0188    6.2137   23.3131 H   0  0  0  0  0  0
   -3.7912    7.2181   24.5022 H   0  0  0  0  0  0
   -2.1538    5.0605   21.1086 H   0  0  0  0  0  0
   -3.6711    3.7177   22.1563 H   0  0  0  0  0  0
   -4.5349    7.0076   20.4900 H   0  0  0  0  0  0
   -1.4190    5.4920   18.5340 H   0  0  0  0  0  0
   -3.8288    4.8443   14.5248 H   0  0  0  0  0  0
   -5.6646    4.9493   14.0257 H   0  0  0  0  0  0
   -7.7610    6.5220   17.7510 H   0  0  0  0  0  0
   -4.8681   13.4847   23.6565 H   0  0  0  0  0  0
   -7.2328    5.8689   15.5634 H   0  0  0  0  0  0
  1  2  1  0  0  0
  1 27  1  0  0  0
  1 28  1  0  0  0
  1 46  1  0  0  0
  2  3  1  0  0  0
  2  6  1  0  0  0
  2 29  1  0  0  0
  3  4  1  0  0  0
  3 30  1  0  0  0
  3 31  1  0  0  0
  4  5  1  0  0  0
  4 32  1  0  0  0
  4 33  1  0  0  0
  5  9  1  0  0  0
  6  7  2  0  0  0
  6  8  1  0  0  0
  9 10  1  0  0  0
  9 34  1  0  0  0
  9 35  1  0  0  0
 10 11  1  0  0  0
 10 12  1  0  0  0
 10 36  1  0  0  0
 11 16  1  0  0  0
 12 13  1  0  0  0
 12 14  1  0  0  0
 12 37  1  0  0  0
 13 38  1  0  0  0
 14 15  1  0  0  0
 14 16  1  0  0  0
 14 39  1  0  0  0
 15 40  1  0  0  0
 16 17  1  0  0  0
 16 41  1  0  0  0
 17 18  1  0  0  0
 17 26  1  0  0  0
 18 19  2  0  0  0
 18 42  1  0  0  0
 19 20  1  0  0  0
 20 21  2  0  0  0
 20 26  1  0  0  0
 21 22  1  0  0  0
 21 23  1  0  0  0
 22 43  1  0  0  0
 22 44  1  0  0  0
 23 24  2  0  0  0
 23 47  1  0  0  0
 24 25  1  0  0  0
 24 45  1  0  0  0
 25 26  2  0  0  0
M  CHG  3   1   1   8  -2  23   1
M  END
> <s_m_source_file>
/cbio/jclab/home/rustenburg/PFK/Epik-Ligands/Results/InProgress/S-ADENOSYL-L-HOMOCYSTEINE/pH_4.0/S-ADENOSYL-L-HOMOCYSTEINE_pH_4.0-before_epik.mol2

> <i_m_source_file_index>
1

> <r_lp_tautomer_probability>
0.978911883040575

> <r_epik_Ionization_Penalty>
  0.5539

> <r_epik_Ionization_Penalty_Charging>
  0.5473

> <r_epik_Ionization_Penalty_Neutral>
  0.0066

> <r_epik_State_Penalty>
  4.2410

> <r_epik_Charging_Adjusted_Penalty>
4.78830495705853

> <i_epik_Tot_Q>
0

> <i_epik_Tot_abs_Q>
4

> <s_epik_Chemistry_Notes>
This compound contains an acetal/aminal-like group ( X-CH(R)-Y where X, Y are N, S, or O) that may be acid/base labile, releasing an aldehyde.

$$$$
SAH
                    3D
 Structure written by MMmdl.
 48 50  0  0  1  0            999 V2000
   -3.9390   12.9490   23.9010 N   0  3  0  0  0  0
   -4.2000   11.9820   24.9600 C   0  0  1  0  0  0
   -2.9430   11.1320   25.1840 C   0  0  0  0  0  0
   -2.4920   10.4960   23.8630 C   0  0  0  0  0  0
   -1.1570    9.2870   23.8890 S   0  0  0  0  0  0
   -4.7190   12.6510   26.2500 C   0  0  0  0  0  0
   -5.6170   13.5130   26.0830 O   0  0  0  0  0  0
   -4.5570   12.0620   27.3540 O   0  5  0  0  0  0
   -1.2660    8.7480   22.1870 C   0  0  0  0  0  0
   -2.5480    8.0170   21.8880 C   0  0  1  0  0  0
   -2.5910    7.8390   20.4400 O   0  0  0  0  0  0
   -2.7810    6.5900   22.6150 C   0  0  1  0  0  0
   -3.8780    6.6110   23.5890 O   0  0  0  0  0  0
   -3.0230    5.6880   21.3550 C   0  0  1  0  0  0
   -3.9020    4.5270   21.4480 O   0  0  0  0  0  0
   -3.4830    6.7390   20.3130 C   0  0  2  0  0  0
   -3.4680    6.3410   18.9140 N   0  0  0  0  0  0
   -2.4550    5.6770   18.2020 C   0  0  0  0  0  0
   -2.8580    5.2660   17.0360 N   0  3  0  0  0  0
   -4.1920    5.7280   16.9550 C   0  0  0  0  0  0
   -5.1660    5.6140   15.9680 C   0  0  0  0  0  0
   -4.8690    5.1060   14.7690 N   0  0  0  0  0  0
   -6.4250    5.9470   16.3060 N   0  0  0  0  0  0
   -6.6940    6.3660   17.5220 C   0  0  0  0  0  0
   -5.8590    6.6230   18.5010 N   0  0  0  0  0  0
   -4.5990    6.2900   18.1330 C   0  0  0  0  0  0
   -3.5725   12.4235   23.0068 H   0  0  0  0  0  0
   -3.1794   13.6685   24.2406 H   0  0  0  0  0  0
   -5.0139   11.3416   24.5893 H   0  0  0  0  0  0
   -2.1342   11.7687   25.5719 H   0  0  0  0  0  0
   -3.1633   10.3359   25.9104 H   0  0  0  0  0  0
   -3.3384    9.9635   23.4047 H   0  0  0  0  0  0
   -2.1397   11.2821   23.1790 H   0  0  0  0  0  0
   -3.7602   11.3119   27.4655 H   0  0  0  0  0  0
   -1.2145    9.6223   21.5215 H   0  0  0  0  0  0
   -0.4311    8.0675   21.9637 H   0  0  0  0  0  0
   -3.3396    8.7048   22.2201 H   0  0  0  0  0  0
   -2.0188    6.2137   23.3131 H   0  0  0  0  0  0
   -3.7912    7.2181   24.5022 H   0  0  0  0  0  0
   -2.1538    5.0605   21.1086 H   0  0  0  0  0  0
   -3.6711    3.7177   22.1563 H   0  0  0  0  0  0
   -4.5349    7.0076   20.4900 H   0  0  0  0  0  0
   -1.4190    5.4920   18.5340 H   0  0  0  0  0  0
   -3.8288    4.8443   14.5248 H   0  0  0  0  0  0
   -5.6646    4.9493   14.0257 H   0  0  0  0  0  0
   -7.7610    6.5220   17.7510 H   0  0  0  0  0  0
   -4.8681   13.4847   23.6565 H   0  0  0  0  0  0
   -2.1757    4.6969   16.3874 H   0  0  0  0  0  0
  1  2  1  0  0  0
  1 27  1  0  0  0
  1 28  1  0  0  0
  1 47  1  0  0  0
  2  3  1  0  0  0
  2  6  1  0  0  0
  2 29  1  0  0  0
  3  4  1  0  0  0
  3 30  1  0  0  0
  3 31  1  0  0  0
  4  5  1  0  0  0
  4 32  1  0  0  0
  4 33  1  0  0  0
  5  9  1  0  0  0
  6  7  2  0  0  0
  6  8  1  0  0  0
  8 34  1  0  0  0
  9 10  1  0  0  0
  9 35  1  0  0  0
  9 36  1  0  0  0
 10 11  1  0  0  0
 10 12  1  0  0  0
 10 37  1  0  0  0
 11 16  1  0  0  0
 12 13  1  0  0  0
 12 14  1  0  0  0
 12 38  1  0  0  0
 13 39  1  0  0  0
 14 15  1  0  0  0
 14 16  1  0  0  0
 14 40  1  0  0  0
 15 41  1  0  0  0
 16 17  1  0  0  0
 16 42  1  0  0  0
 17 18  1  0  0  0
 17 26  1  0  0  0
 18 19  2  0  0  0
 18 43  1  0  0  0
 19 20  1  0  0  0
 19 48  1  0  0  0
 20 21  2  0  0  0
 20 26  1  0  0  0
 21 22  1  0  0  0
 21 23  1  0  0  0
 22 44  1  0  0  0
 22 45  1  0  0  0
 23 24  2  0  0  0
 24 25  1  0  0  0
 24 46  1  0  0  0
 25 26  2  0  0  0
M  CHG  3   1   1   8  -1  19   1
M  END
> <s_m_source_file>
/cbio/jclab/home/rustenburg/PFK/Epik-Ligands/Results/InProgress/S-ADENOSYL-L-HOMOCYSTEINE/pH_4.0/S-ADENOSYL-L-HOMOCYSTEINE_pH_4.0-before_epik.mol2

> <i_m_source_file_index>
1

> <r_epik_Ionization_Penalty>
  4.2902

> <r_epik_Ionization_Penalty_Charging>
  1.9112

> <r_epik_Ionization_Penalty_Neutral>
  2.3790

> <r_epik_State_Penalty>
  4.6440

> <r_epik_Charging_Adjusted_Penalty>
6.55517598886011

> <i_epik_Tot_Q>
1

> <i_epik_Tot_abs_Q>
3

> <s_epik_Chemistry_Notes>
This compound contains an acetal/aminal-like group ( X-CH(R)-Y where X, Y are N, S, or O) that may be acid/base labile, releasing an aldehyde.

$$$$
SAH
                    3D
 Structure written by MMmdl.
 45 47  0  0  1  0            999 V2000
   -3.9390   12.9490   23.9010 N   0  0  0  0  0  0
   -4.2000   11.9820   24.9600 C   0  0  1  0  0  0
   -2.9430   11.1320   25.1840 C   0  0  0  0  0  0
   -2.4920   10.4960   23.8630 C   0  0  0  0  0  0
   -1.1570    9.2870   23.8890 S   0  0  0  0  0  0
   -4.7190   12.6510   26.2500 C   0  0  0  0  0  0
   -5.6170   13.5130   26.0830 O   0  0  0  0  0  0
   -4.5570   12.0620   27.3540 O   0  6  0  0  0  0
   -1.2660    8.7480   22.1870 C   0  0  0  0  0  0
   -2.5480    8.0170   21.8880 C   0  0  1  0  0  0
   -2.5910    7.8390   20.4400 O   0  0  0  0  0  0
   -2.7810    6.5900   22.6150 C   0  0  1  0  0  0
   -3.8780    6.6110   23.5890 O   0  0  0  0  0  0
   -3.0230    5.6880   21.3550 C   0  0  1  0  0  0
   -3.9020    4.5270   21.4480 O   0  0  0  0  0  0
   -3.4830    6.7390   20.3130 C   0  0  2  0  0  0
   -3.4680    6.3410   18.9140 N   0  0  0  0  0  0
   -2.4550    5.6770   18.2020 C   0  0  0  0  0  0
   -2.8580    5.2660   17.0360 N   0  0  0  0  0  0
   -4.1920    5.7280   16.9550 C   0  0  0  0  0  0
   -5.1660    5.6140   15.9680 C   0  0  0  0  0  0
   -4.8690    5.1060   14.7690 N   0  0  0  0  0  0
   -6.4250    5.9470   16.3060 N   0  0  0  0  0  0
   -6.6940    6.3660   17.5220 C   0  0  0  0  0  0
   -5.8590    6.6230   18.5010 N   0  0  0  0  0  0
   -4.5990    6.2900   18.1330 C   0  0  0  0  0  0
   -3.1283   13.6241   24.2126 H   0  0  0  0  0  0
   -3.6421   12.4179   22.9846 H   0  0  0  0  0  0
   -5.0139   11.3416   24.5893 H   0  0  0  0  0  0
   -2.1342   11.7687   25.5719 H   0  0  0  0  0  0
   -3.1633   10.3359   25.9104 H   0  0  0  0  0  0
   -3.3384    9.9635   23.4047 H   0  0  0  0  0  0
   -2.1397   11.2821   23.1790 H   0  0  0  0  0  0
   -1.2145    9.6223   21.5215 H   0  0  0  0  0  0
   -0.4311    8.0675   21.9637 H   0  0  0  0  0  0
   -3.3396    8.7048   22.2201 H   0  0  0  0  0  0
   -2.0188    6.2137   23.3131 H   0  0  0  0  0  0
   -3.7912    7.2181   24.5022 H   0  0  0  0  0  0
   -2.1538    5.0605   21.1086 H   0  0  0  0  0  0
   -3.6711    3.7177   22.1563 H   0  0  0  0  0  0
   -4.5349    7.0076   20.4900 H   0  0  0  0  0  0
   -1.4190    5.4920   18.5340 H   0  0  0  0  0  0
   -3.8288    4.8443   14.5248 H   0  0  0  0  0  0
   -5.6646    4.9493   14.0257 H   0  0  0  0  0  0
   -7.7610    6.5220   17.7510 H   0  0  0  0  0  0
  1  2  1  0  0  0
  1 27  1  0  0  0
  1 28  1  0  0  0
  2  3  1  0  0  0
  2  6  1  0  0  0
  2 29  1  0  0  0
  3  4  1  0  0  0
  3 30  1  0  0  0
  3 31  1  0  0  0
  4  5  1  0  0  0
  4 32  1  0  0  0
  4 33  1  0  0  0
  5  9  1  0  0  0
  6  7  2  0  0  0
  6  8  1  0  0  0
  9 10  1  0  0  0
  9 34  1  0  0  0
  9 35  1  0  0  0
 10 11  1  0  0  0
 10 12  1  0  0  0
 10 36  1  0  0  0
 11 16  1  0  0  0
 12 13  1  0  0  0
 12 14  1  0  0  0
 12 37  1  0  0  0
 13 38  1  0  0  0
 14 15  1  0  0  0
 14 16  1  0  0  0
 14 39  1  0  0  0
 15 40  1  0  0  0
 16 17  1  0  0  0
 16 41  1  0  0  0
 17 18  1  0  0  0
 17 26  1  0  0  0
 18 19  2  0  0  0
 18 42  1  0  0  0
 19 20  1  0  0  0
 20 21  2  0  0  0
 20 26  1  0  0  0
 21 22  1  0  0  0
 21 23  1  0  0  0
 22 43  1  0  0  0
 22 44  1  0  0  0
 23 24  2  0  0  0
 24 25  1  0  0  0
 24 45  1  0  0  0
 25 26  2  0  0  0
M  CHG  1   8  -2
M  END
> <s_m_source_file>
/cbio/jclab/home/rustenburg/PFK/Epik-Ligands/Results/InProgress/S-ADENOSYL-L-HOMOCYSTEINE/pH_4.0/S-ADENOSYL-L-HOMOCYSTEINE_pH_4.0-before_epik.mol2

> <i_m_source_file_index>
1

> <r_lp_tautomer_probability>
0.999997216410988

> <r_epik_Ionization_Penalty>
  4.3575

> <r_epik_Ionization_Penalty_Charging>
  0.0000

> <r_epik_Ionization_Penalty_Neutral>
  4.3575

> <r_epik_State_Penalty>
  4.8867

> <r_epik_Charging_Adjusted_Penalty>
4.88665160309928

> <i_epik_Tot_Q>
-2

> <i_epik_Tot_abs_Q>
2

> <s_epik_Chemistry_Notes>
This compound contains an acetal/aminal-like group ( X-CH(R)-Y where X, Y are N, S, or O) that may be acid/base labile, releasing an aldehyde.

$$$$
