@<TRIPOS>MOLECULE
[[5-(6-aminopurin-9-yl)-3,4-dihydroxy-tetrahydrofuran-2-yl]methoxy-oxido-phosphoryl]oxy-(phosphonatomethyl)phosphinate
   45    47     1     0     0
SMALL
USER_CHARGES

@<TRIPOS>ATOM
      1 PG          0.8550   23.2630   12.2680 P.3       1 ACP         1.1371
      2 O1G         0.2610   24.0670   11.1550 O.2       1 ACP        -0.8729
      3 O2G         1.5460   24.2690   13.3220 O.3       1 ACP        -0.8729
      4 O3G        -0.1310   22.3590   12.9100 O.3       1 ACP        -0.8729
      5 PB          3.9600   22.9890   11.4430 P.3       1 ACP         1.3530
      6 O1B         4.3120   23.6160   12.7350 O.2       1 ACP        -0.8769
      7 O2B         3.9240   23.9590   10.3010 O.3       1 ACP        -0.8769
      8 C3B         2.2840   22.2700   11.6710 C.3       1 ACP        -0.2917
      9 PA          5.7430   20.7430   12.1060 P.3       1 ACP         1.4515
     10 O1A         4.8310   20.2740   13.1830 O.2       1 ACP        -0.8638
     11 O2A         7.0060   21.2900   12.6600 O.3       1 ACP        -0.8638
     12 O3A         5.0120   21.8360   11.1810 O.3       1 ACP        -0.6999
     13 O5'         6.0310   19.5600   11.0600 O.3       1 ACP        -0.5471
     14 C5'         4.9790   19.0950   10.1930 C.3       1 ACP         0.2123
     15 C4'         5.2560   17.6540    9.8080 C.3       1 ACP         0.0901
     16 O4'         6.3740   17.6320    8.8930 O.3       1 ACP        -0.3685
     17 C3'         5.6520   16.8010   11.0140 C.3       1 ACP         0.0750
     18 O3'         5.2040   15.4480   10.8610 O.3       1 ACP        -0.6246
     19 C2'         7.1700   16.9250   11.0340 C.3       1 ACP         0.1174
     20 O2'         7.8570   15.9360   11.8240 O.3       1 ACP        -0.5933
     21 C1'         7.4740   16.9460    9.5320 C.3       1 ACP         0.4236
     22 N9          8.7090   17.7200    9.2130 N.pl3     1 ACP        -0.6836
     23 C8          8.8950   19.0190    9.4210 C.ar      1 ACP         0.5038
     24 N7         10.1830   19.2940    9.1830 N.ar      1 ACP        -0.6089
     25 C5         10.7990   18.1770    8.8190 C.ar      1 ACP        -0.2126
     26 C6         12.1150   17.8560    8.4630 C.ar      1 ACP         0.6444
     27 N6         13.1040   18.7320    8.5870 N.pl3     1 ACP        -1.0254
     28 N1         12.3770   16.5790    8.1080 N.ar      1 ACP        -0.8011
     29 C2         11.4290   15.6450    8.1140 C.ar      1 ACP         0.5537
     30 N3         10.2040   15.9280    8.4830 N.ar      1 ACP        -0.7575
     31 C4          9.8490   17.1740    8.8270 C.ar      1 ACP         0.5843
     32 H3B1        2.4713   21.4406   12.3689 H         1 ACP         0.0136
     33 H3B2        2.0583   21.8657   10.6732 H         1 ACP         0.0136
     34 H5'1        4.0151   19.1594   10.7190 H         1 ACP         0.0335
     35 H5'2        4.9458   19.7204    9.2887 H         1 ACP         0.0335
     36 H4'         4.3602   17.2441    9.3185 H         1 ACP         0.1078
     37 H3'         5.1723   17.0686   11.9670 H         1 ACP         0.0360
     38 HO3'        4.1272   15.2252   10.8317 H         1 ACP         0.4478
     39 H2'         7.5793   17.7731   11.6025 H         1 ACP         0.0362
     40 HO2'        7.6770   15.8755   12.9075 H         1 ACP         0.4122
     41 H1'         7.5941   15.9232    9.1453 H         1 ACP         0.0988
     42 H8          8.1200   19.7380    9.7340 H         1 ACP         0.0948
     43 HN61       12.8858   19.7706    8.8763 H         1 ACP         0.4197
     44 HN62       14.1421   18.4196    8.4005 H         1 ACP         0.4197
     45 H2         11.6640   14.6120    7.8060 H         1 ACP         0.0011
@<TRIPOS>BOND
     1    1    2 2
     2    1    3 1
     3    1    4 1
     4    1    8 1
     5    5    6 2
     6    5    7 1
     7    5    8 1
     8    5   12 1
     9    8   32 1
    10    8   33 1
    11    9   10 2
    12    9   11 1
    13    9   12 1
    14    9   13 1
    15   13   14 1
    16   14   15 1
    17   14   34 1
    18   14   35 1
    19   15   16 1
    20   15   17 1
    21   15   36 1
    22   16   21 1
    23   17   18 1
    24   17   19 1
    25   17   37 1
    26   18   38 1
    27   19   20 1
    28   19   21 1
    29   19   39 1
    30   20   40 1
    31   21   22 1
    32   21   41 1
    33   22   23 ar
    34   22   31 ar
    35   23   24 ar
    36   23   42 1
    37   24   25 ar
    38   25   26 ar
    39   25   31 ar
    40   26   27 1
    41   26   28 ar
    42   27   43 1
    43   27   44 1
    44   28   29 ar
    45   29   30 ar
    46   29   45 1
    47   30   31 ar
@<TRIPOS>SUBSTRUCTURE
     1 ACP         1 GROUP   0 A     ****
@<TRIPOS>MOLECULE
[[5-(6-aminopurin-9-yl)-3-hydroxy-4-oxido-tetrahydrofuran-2-yl]methoxy-oxido-phosphoryl]oxy-(phosphonatomethyl)phosphinate
   44    46     1     0     0
SMALL
USER_CHARGES

@<TRIPOS>ATOM
      1 PG          0.8550   23.2630   12.2680 P.3       1 ACP         1.2197
      2 O1G         0.2610   24.0670   11.1550 O.2       1 ACP        -0.9480
      3 O2G         1.5460   24.2690   13.3220 O.3       1 ACP        -0.9480
      4 O3G        -0.1310   22.3590   12.9100 O.3       1 ACP        -0.9480
      5 PB          3.9600   22.9890   11.4430 P.3       1 ACP         1.5570
      6 O1B         4.3120   23.6160   12.7350 O.2       1 ACP        -0.9356
      7 O2B         3.9240   23.9590   10.3010 O.3       1 ACP        -0.9356
      8 C3B         2.2840   22.2700   11.6710 C.3       1 ACP        -0.5741
      9 PA          5.7430   20.7430   12.1060 P.3       1 ACP         1.5727
     10 O1A         4.8310   20.2740   13.1830 O.2       1 ACP        -0.9279
     11 O2A         7.0060   21.2900   12.6600 O.3       1 ACP        -0.9279
     12 O3A         5.0120   21.8360   11.1810 O.3       1 ACP        -0.8070
     13 O5'         6.0310   19.5600   11.0600 O.3       1 ACP        -0.5669
     14 C5'         4.9790   19.0950   10.1930 C.3       1 ACP         0.1975
     15 C4'         5.2560   17.6540    9.8080 C.3       1 ACP         0.1295
     16 O4'         6.3740   17.6320    8.8930 O.3       1 ACP        -0.4773
     17 C3'         5.6520   16.8010   11.0140 C.3       1 ACP         0.0559
     18 O3'         5.2040   15.4480   10.8610 O.3       1 ACP        -0.6504
     19 C2'         7.1700   16.9250   11.0340 C.3       1 ACP         0.3685
     20 O2'         7.8570   15.9360   11.8240 O.3       1 ACP        -0.8635
     21 C1'         7.4740   16.9460    9.5320 C.3       1 ACP         0.2924
     22 N9          8.7090   17.7200    9.2130 N.pl3     1 ACP        -0.5783
     23 C8          8.8950   19.0190    9.4210 C.ar      1 ACP         0.5645
     24 N7         10.1830   19.2940    9.1830 N.ar      1 ACP        -0.6364
     25 C5         10.7990   18.1770    8.8190 C.ar      1 ACP        -0.1946
     26 C6         12.1150   17.8560    8.4630 C.ar      1 ACP         0.6395
     27 N6         13.1040   18.7320    8.5870 N.pl3     1 ACP        -0.9092
     28 N1         12.3770   16.5790    8.1080 N.ar      1 ACP        -0.8222
     29 C2         11.4290   15.6450    8.1140 C.ar      1 ACP         0.5946
     30 N3         10.2040   15.9280    8.4830 N.ar      1 ACP        -0.6427
     31 C4          9.8490   17.1740    8.8270 C.ar      1 ACP         0.5472
     32 H3B1        2.4713   21.4406   12.3689 H         1 ACP         0.0421
     33 H3B2        2.0583   21.8657   10.6732 H         1 ACP         0.0421
     34 H5'1        4.0151   19.1594   10.7190 H         1 ACP         0.0102
     35 H5'2        4.9458   19.7204    9.2887 H         1 ACP         0.0102
     36 H4'         4.3602   17.2441    9.3185 H         1 ACP         0.0473
     37 H3'         5.1723   17.0686   11.9670 H         1 ACP         0.1066
     38 HO3'        4.1272   15.2252   10.8317 H         1 ACP         0.4031
     39 H2'         7.5793   17.7731   11.6025 H         1 ACP        -0.0229
     40 H1'         7.5941   15.9232    9.1453 H         1 ACP         0.0477
     41 H8          8.1200   19.7380    9.7340 H         1 ACP         0.1190
     42 HN61       12.8858   19.7706    8.8763 H         1 ACP         0.3702
     43 HN62       14.1421   18.4196    8.4005 H         1 ACP         0.3702
     44 H2         11.6640   14.6120    7.8060 H         1 ACP         0.0088
@<TRIPOS>BOND
     1    1    2 2
     2    1    3 1
     3    1    4 1
     4    1    8 1
     5    5    6 2
     6    5    7 1
     7    5    8 1
     8    5   12 1
     9    8   32 1
    10    8   33 1
    11    9   10 2
    12    9   11 1
    13    9   12 1
    14    9   13 1
    15   13   14 1
    16   14   15 1
    17   14   34 1
    18   14   35 1
    19   15   16 1
    20   15   17 1
    21   15   36 1
    22   16   21 1
    23   17   18 1
    24   17   19 1
    25   17   37 1
    26   18   38 1
    27   19   20 1
    28   19   21 1
    29   19   39 1
    30   21   22 1
    31   21   40 1
    32   22   23 ar
    33   22   31 ar
    34   23   24 ar
    35   23   41 1
    36   24   25 ar
    37   25   26 ar
    38   25   31 ar
    39   26   27 1
    40   26   28 ar
    41   27   42 1
    42   27   43 1
    43   28   29 ar
    44   29   30 ar
    45   29   44 1
    46   30   31 ar
@<TRIPOS>SUBSTRUCTURE
     1 ACP         1 GROUP   0 A     ****
@<TRIPOS>MOLECULE
[[5-(6-aminopurin-9-yl)-3,4-dihydroxy-tetrahydrofuran-2-yl]methoxy-oxido-phosphoryl]oxy-[[hydroxy(oxido)phosphoryl]methyl]phosphinate
   46    48     1     0     0
SMALL
USER_CHARGES

@<TRIPOS>ATOM
      1 PG          0.8550   23.2630   12.2680 P.3       1 ACP         1.3841
      2 O1G         0.2610   24.0670   11.1550 O.2       1 ACP        -0.9006
      3 O2G         1.5460   24.2690   13.3220 O.3       1 ACP        -0.9006
      4 O3G        -0.1310   22.3590   12.9100 O.3       1 ACP        -0.8023
      5 PB          3.9600   22.9890   11.4430 P.3       1 ACP         1.5336
      6 O1B         4.3120   23.6160   12.7350 O.2       1 ACP        -0.9161
      7 O2B         3.9240   23.9590   10.3010 O.3       1 ACP        -0.9161
      8 C3B         2.2840   22.2700   11.6710 C.3       1 ACP        -0.5620
      9 PA          5.7430   20.7430   12.1060 P.3       1 ACP         1.6150
     10 O1A         4.8310   20.2740   13.1830 O.2       1 ACP        -0.8998
     11 O2A         7.0060   21.2900   12.6600 O.3       1 ACP        -0.8998
     12 O3A         5.0120   21.8360   11.1810 O.3       1 ACP        -0.8200
     13 O5'         6.0310   19.5600   11.0600 O.3       1 ACP        -0.5568
     14 C5'         4.9790   19.0950   10.1930 C.3       1 ACP         0.2326
     15 C4'         5.2560   17.6540    9.8080 C.3       1 ACP         0.1150
     16 O4'         6.3740   17.6320    8.8930 O.3       1 ACP        -0.3893
     17 C3'         5.6520   16.8010   11.0140 C.3       1 ACP         0.1209
     18 O3'         5.2040   15.4480   10.8610 O.3       1 ACP        -0.5313
     19 C2'         7.1700   16.9250   11.0340 C.3       1 ACP         0.0502
     20 O2'         7.8570   15.9360   11.8240 O.3       1 ACP        -0.5729
     21 C1'         7.4740   16.9460    9.5320 C.3       1 ACP         0.4020
     22 N9          8.7090   17.7200    9.2130 N.pl3     1 ACP        -0.6751
     23 C8          8.8950   19.0190    9.4210 C.ar      1 ACP         0.5826
     24 N7         10.1830   19.2940    9.1830 N.ar      1 ACP        -0.5895
     25 C5         10.7990   18.1770    8.8190 C.ar      1 ACP        -0.2012
     26 C6         12.1150   17.8560    8.4630 C.ar      1 ACP         0.7046
     27 N6         13.1040   18.7320    8.5870 N.pl3     1 ACP        -0.9335
     28 N1         12.3770   16.5790    8.1080 N.ar      1 ACP        -0.8066
     29 C2         11.4290   15.6450    8.1140 C.ar      1 ACP         0.6478
     30 N3         10.2040   15.9280    8.4830 N.ar      1 ACP        -0.7184
     31 C4          9.8490   17.1740    8.8270 C.ar      1 ACP         0.5572
     32 HOG3       -1.0601   22.7695   13.3322 H         1 ACP         0.4087
     33 H3B1        2.4713   21.4406   12.3689 H         1 ACP         0.0678
     34 H3B2        2.0583   21.8657   10.6732 H         1 ACP         0.0678
     35 H5'1        4.0151   19.1594   10.7190 H         1 ACP         0.0272
     36 H5'2        4.9458   19.7204    9.2887 H         1 ACP         0.0272
     37 H4'         4.3602   17.2441    9.3185 H         1 ACP         0.1247
     38 H3'         5.1723   17.0686   11.9670 H         1 ACP         0.0465
     39 HO3'        4.1272   15.2252   10.8317 H         1 ACP         0.3809
     40 H2'         7.5793   17.7731   11.6025 H         1 ACP         0.0333
     41 HO2'        7.6770   15.8755   12.9075 H         1 ACP         0.3932
     42 H1'         7.5941   15.9232    9.1453 H         1 ACP         0.0840
     43 H8          8.1200   19.7380    9.7340 H         1 ACP         0.1290
     44 HN61       12.8858   19.7706    8.8763 H         1 ACP         0.4125
     45 HN62       14.1421   18.4196    8.4005 H         1 ACP         0.4125
     46 H2         11.6640   14.6120    7.8060 H         1 ACP         0.0309
@<TRIPOS>BOND
     1    1    2 2
     2    1    3 1
     3    1    4 1
     4    1    8 1
     5    4   32 1
     6    5    6 2
     7    5    7 1
     8    5    8 1
     9    5   12 1
    10    8   33 1
    11    8   34 1
    12    9   10 2
    13    9   11 1
    14    9   12 1
    15    9   13 1
    16   13   14 1
    17   14   15 1
    18   14   35 1
    19   14   36 1
    20   15   16 1
    21   15   17 1
    22   15   37 1
    23   16   21 1
    24   17   18 1
    25   17   19 1
    26   17   38 1
    27   18   39 1
    28   19   20 1
    29   19   21 1
    30   19   40 1
    31   20   41 1
    32   21   22 1
    33   21   42 1
    34   22   23 ar
    35   22   31 ar
    36   23   24 ar
    37   23   43 1
    38   24   25 ar
    39   25   26 ar
    40   25   31 ar
    41   26   27 1
    42   26   28 ar
    43   27   44 1
    44   27   45 1
    45   28   29 ar
    46   29   30 ar
    47   29   46 1
    48   30   31 ar
@<TRIPOS>SUBSTRUCTURE
     1 ACP         1 GROUP   0 A     ****
@<TRIPOS>MOLECULE
[[5-(6-aminopurin-9-yl)-4-hydroxy-3-oxido-tetrahydrofuran-2-yl]methoxy-oxido-phosphoryl]oxy-(phosphonatomethyl)phosphinate
   44    46     1     0     0
SMALL
USER_CHARGES

@<TRIPOS>ATOM
      1 PG          0.8550   23.2630   12.2680 P.3       1 ACP         1.2269
      2 O1G         0.2610   24.0670   11.1550 O.2       1 ACP        -0.9537
      3 O2G         1.5460   24.2690   13.3220 O.3       1 ACP        -0.9537
      4 O3G        -0.1310   22.3590   12.9100 O.3       1 ACP        -0.9537
      5 PB          3.9600   22.9890   11.4430 P.3       1 ACP         1.5406
      6 O1B         4.3120   23.6160   12.7350 O.2       1 ACP        -0.9313
      7 O2B         3.9240   23.9590   10.3010 O.3       1 ACP        -0.9313
      8 C3B         2.2840   22.2700   11.6710 C.3       1 ACP        -0.5640
      9 PA          5.7430   20.7430   12.1060 P.3       1 ACP         1.5675
     10 O1A         4.8310   20.2740   13.1830 O.2       1 ACP        -0.9170
     11 O2A         7.0060   21.2900   12.6600 O.3       1 ACP        -0.9170
     12 O3A         5.0120   21.8360   11.1810 O.3       1 ACP        -0.8063
     13 O5'         6.0310   19.5600   11.0600 O.3       1 ACP        -0.5695
     14 C5'         4.9790   19.0950   10.1930 C.3       1 ACP         0.2454
     15 C4'         5.2560   17.6540    9.8080 C.3       1 ACP         0.0244
     16 O4'         6.3740   17.6320    8.8930 O.3       1 ACP        -0.3938
     17 C3'         5.6520   16.8010   11.0140 C.3       1 ACP         0.3747
     18 O3'         5.2040   15.4480   10.8610 O.3       1 ACP        -0.8662
     19 C2'         7.1700   16.9250   11.0340 C.3       1 ACP        -0.0010
     20 O2'         7.8570   15.9360   11.8240 O.3       1 ACP        -0.6601
     21 C1'         7.4740   16.9460    9.5320 C.3       1 ACP         0.4113
     22 N9          8.7090   17.7200    9.2130 N.pl3     1 ACP        -0.6313
     23 C8          8.8950   19.0190    9.4210 C.ar      1 ACP         0.5921
     24 N7         10.1830   19.2940    9.1830 N.ar      1 ACP        -0.6354
     25 C5         10.7990   18.1770    8.8190 C.ar      1 ACP        -0.1889
     26 C6         12.1150   17.8560    8.4630 C.ar      1 ACP         0.6467
     27 N6         13.1040   18.7320    8.5870 N.pl3     1 ACP        -0.9175
     28 N1         12.3770   16.5790    8.1080 N.ar      1 ACP        -0.8176
     29 C2         11.4290   15.6450    8.1140 C.ar      1 ACP         0.6056
     30 N3         10.2040   15.9280    8.4830 N.ar      1 ACP        -0.6763
     31 C4          9.8490   17.1740    8.8270 C.ar      1 ACP         0.5514
     32 H3B1        2.4713   21.4406   12.3689 H         1 ACP         0.0386
     33 H3B2        2.0583   21.8657   10.6732 H         1 ACP         0.0386
     34 H5'1        4.0151   19.1594   10.7190 H         1 ACP        -0.0078
     35 H5'2        4.9458   19.7204    9.2887 H         1 ACP        -0.0078
     36 H4'         4.3602   17.2441    9.3185 H         1 ACP         0.1091
     37 H3'         5.1723   17.0686   11.9670 H         1 ACP        -0.0859
     38 H2'         7.5793   17.7731   11.6025 H         1 ACP         0.0037
     39 HO2'        7.6770   15.8755   12.9075 H         1 ACP         0.4415
     40 H1'         7.5941   15.9232    9.1453 H         1 ACP         0.0653
     41 H8          8.1200   19.7380    9.7340 H         1 ACP         0.1337
     42 HN61       12.8858   19.7706    8.8763 H         1 ACP         0.3806
     43 HN62       14.1421   18.4196    8.4005 H         1 ACP         0.3806
     44 H2         11.6640   14.6120    7.8060 H         1 ACP         0.0091
@<TRIPOS>BOND
     1    1    2 2
     2    1    3 1
     3    1    4 1
     4    1    8 1
     5    5    6 2
     6    5    7 1
     7    5    8 1
     8    5   12 1
     9    8   32 1
    10    8   33 1
    11    9   10 2
    12    9   11 1
    13    9   12 1
    14    9   13 1
    15   13   14 1
    16   14   15 1
    17   14   34 1
    18   14   35 1
    19   15   16 1
    20   15   17 1
    21   15   36 1
    22   16   21 1
    23   17   18 1
    24   17   19 1
    25   17   37 1
    26   19   20 1
    27   19   21 1
    28   19   38 1
    29   20   39 1
    30   21   22 1
    31   21   40 1
    32   22   23 ar
    33   22   31 ar
    34   23   24 ar
    35   23   41 1
    36   24   25 ar
    37   25   26 ar
    38   25   31 ar
    39   26   27 1
    40   26   28 ar
    41   27   42 1
    42   27   43 1
    43   28   29 ar
    44   29   30 ar
    45   29   44 1
    46   30   31 ar
@<TRIPOS>SUBSTRUCTURE
     1 ACP         1 GROUP   0 A     ****
@<TRIPOS>MOLECULE
[[5-(6-azanidylpurin-9-yl)-3,4-dihydroxy-tetrahydrofuran-2-yl]methoxy-oxido-phosphoryl]oxy-(phosphonatomethyl)phosphinate
   44    46     1     0     0
SMALL
USER_CHARGES

@<TRIPOS>ATOM
      1 PG          0.8550   23.2630   12.2680 P.3       1 ACP         1.2192
      2 O1G         0.2610   24.0670   11.1550 O.2       1 ACP        -0.9456
      3 O2G         1.5460   24.2690   13.3220 O.3       1 ACP        -0.9456
      4 O3G        -0.1310   22.3590   12.9100 O.3       1 ACP        -0.9456
      5 PB          3.9600   22.9890   11.4430 P.3       1 ACP         1.5533
      6 O1B         4.3120   23.6160   12.7350 O.2       1 ACP        -0.9293
      7 O2B         3.9240   23.9590   10.3010 O.3       1 ACP        -0.9293
      8 C3B         2.2840   22.2700   11.6710 C.3       1 ACP        -0.5814
      9 PA          5.7430   20.7430   12.1060 P.3       1 ACP         1.5755
     10 O1A         4.8310   20.2740   13.1830 O.2       1 ACP        -0.9204
     11 O2A         7.0060   21.2900   12.6600 O.3       1 ACP        -0.9204
     12 O3A         5.0120   21.8360   11.1810 O.3       1 ACP        -0.7969
     13 O5'         6.0310   19.5600   11.0600 O.3       1 ACP        -0.5688
     14 C5'         4.9790   19.0950   10.1930 C.3       1 ACP         0.2336
     15 C4'         5.2560   17.6540    9.8080 C.3       1 ACP         0.1061
     16 O4'         6.3740   17.6320    8.8930 O.3       1 ACP        -0.4595
     17 C3'         5.6520   16.8010   11.0140 C.3       1 ACP         0.0570
     18 O3'         5.2040   15.4480   10.8610 O.3       1 ACP        -0.6224
     19 C2'         7.1700   16.9250   11.0340 C.3       1 ACP         0.0686
     20 O2'         7.8570   15.9360   11.8240 O.3       1 ACP        -0.6113
     21 C1'         7.4740   16.9460    9.5320 C.3       1 ACP         0.4345
     22 N9          8.7090   17.7200    9.2130 N.pl3     1 ACP        -0.6841
     23 C8          8.8950   19.0190    9.4210 C.ar      1 ACP         0.4837
     24 N7         10.1830   19.2940    9.1830 N.ar      1 ACP        -0.5916
     25 C5         10.7990   18.1770    8.8190 C.ar      1 ACP        -0.2984
     26 C6         12.1150   17.8560    8.4630 C.ar      1 ACP         0.6909
     27 N6         13.1040   18.7320    8.5870 N.2       1 ACP        -0.8424
     28 N1         12.3770   16.5790    8.1080 N.ar      1 ACP        -0.8810
     29 C2         11.4290   15.6450    8.1140 C.ar      1 ACP         0.6571
     30 N3         10.2040   15.9280    8.4830 N.ar      1 ACP        -0.8450
     31 C4          9.8490   17.1740    8.8270 C.ar      1 ACP         0.5774
     32 H3B1        2.4713   21.4406   12.3689 H         1 ACP         0.0453
     33 H3B2        2.0583   21.8657   10.6732 H         1 ACP         0.0453
     34 H5'1        4.0151   19.1594   10.7190 H         1 ACP         0.0016
     35 H5'2        4.9458   19.7204    9.2887 H         1 ACP         0.0016
     36 H4'         4.3602   17.2441    9.3185 H         1 ACP         0.0526
     37 H3'         5.1723   17.0686   11.9670 H         1 ACP         0.2095
     38 HO3'        4.1272   15.2252   10.8317 H         1 ACP         0.3833
     39 H2'         7.5793   17.7731   11.6025 H         1 ACP         0.0987
     40 HO2'        7.6770   15.8755   12.9075 H         1 ACP         0.3945
     41 H1'         7.5941   15.9232    9.1453 H         1 ACP         0.0733
     42 H8          8.1200   19.7380    9.7340 H         1 ACP         0.0857
     43 HN62       12.8858   19.7706    8.8763 H         1 ACP         0.3047
     44 H2         11.6640   14.6120    7.8060 H         1 ACP        -0.0342
@<TRIPOS>BOND
     1    1    2 2
     2    1    3 1
     3    1    4 1
     4    1    8 1
     5    5    6 2
     6    5    7 1
     7    5    8 1
     8    5   12 1
     9    8   32 1
    10    8   33 1
    11    9   10 2
    12    9   11 1
    13    9   12 1
    14    9   13 1
    15   13   14 1
    16   14   15 1
    17   14   34 1
    18   14   35 1
    19   15   16 1
    20   15   17 1
    21   15   36 1
    22   16   21 1
    23   17   18 1
    24   17   19 1
    25   17   37 1
    26   18   38 1
    27   19   20 1
    28   19   21 1
    29   19   39 1
    30   20   40 1
    31   21   22 1
    32   21   41 1
    33   22   23 ar
    34   22   31 ar
    35   23   24 ar
    36   23   42 1
    37   24   25 ar
    38   25   26 ar
    39   25   31 ar
    40   26   27 1
    41   26   28 ar
    42   27   43 1
    43   28   29 ar
    44   29   30 ar
    45   29   44 1
    46   30   31 ar
@<TRIPOS>SUBSTRUCTURE
     1 ACP         1 GROUP   0 A     ****
